#	Name: CHEMBL3714779
#	Creating user name:	j2ho
#	Creation time:	10. 04. 2025 18:12
#	Modifying user name:	j2ho
#	Modification time:	10. 04. 2025 18:12
#	Program:	corina 5.0.0 0026  29.08.2023
@<TRIPOS>MOLECULE
CHEMBL3714779
31 34 1 0 0
SMALL
NO_CHARGES


@<TRIPOS>ATOM
      1 C1         -0.1837    2.1093    1.9712 C.3       1 UNK    0.0000
      2 C2         -0.1274    0.8668    1.0801 C.3       1 UNK    0.0000
      3 C4         -1.5044    0.1995    1.0468 C.3       1 UNK    0.0000
      4 N5         -1.4375   -1.0149    0.2219 N.3       1 UNK    0.0000
      5 C6         -2.7596   -1.6441    0.1032 C.3       1 UNK    0.0000
      6 C7         -3.3273   -1.8835    1.4786 C.2       1 UNK    0.0000
      7 C8         -4.1785   -1.0708    2.1397 C.2       1 UNK    0.0000
      8 N9         -4.4513   -1.6350    3.3366 N.pl3     1 UNK    0.0000
      9 N11        -3.7447   -2.8413    3.4227 N.2       1 UNK    0.0000
     10 C12        -3.0683   -3.0000    2.3016 C.2       1 UNK    0.0000
     11 C13        -2.1926   -4.1417    1.9684 C.2       1 UNK    0.0000
     12 C14        -1.3535   -4.7810    2.8355 C.2       1 UNK    0.0000
     13 C15        -0.7152   -5.7965    2.1168 C.2       1 UNK    0.0000
     14 C16        -1.1965   -5.7339    0.8272 C.2       1 UNK    0.0000
     15 C17        -0.8068   -6.6102   -0.2797 C.2       1 UNK    0.0000
     16 N18        -1.3566   -6.4413   -1.4986 N.am      1 UNK    0.0000
     17 O19         0.0135   -7.4912   -0.0987 O.2       1 UNK    0.0000
     18 O20        -2.0939   -4.7272    0.7633 O.3       1 UNK    0.0000
     19 C21        -0.4506   -1.9608    0.7613 C.3       1 UNK    0.0000
     20 C22         0.9264   -1.2935    0.7946 C.3       1 UNK    0.0000
     21 N23         0.8595   -0.0791    1.6195 N.3       1 UNK    0.0000
     22 C24         2.1105    0.5163    1.7318 C.ar      1 UNK    0.0000
     23 C25         2.7142    0.6220    2.9809 C.ar      1 UNK    0.0000
     24 C26         3.9591    1.2166    3.0781 C.ar      1 UNK    0.0000
     25 C27         4.5610    1.6876    1.9185 C.ar      1 UNK    0.0000
     26 C28         5.9168    2.3430    1.9769 C.3       1 UNK    0.0000
     27 F29         6.9113    1.3722    1.8168 F         1 UNK    0.0000
     28 F30         6.0211    3.2907    0.9530 F         1 UNK    0.0000
     29 F31         6.0765    2.9745    3.2149 F         1 UNK    0.0000
     30 C32         3.9048    1.5497    0.7121 C.ar      1 UNK    0.0000
     31 N33         2.7195    0.9729    0.6484 N.ar      1 UNK    0.0000
@<TRIPOS>BOND
     1    1    2 1
     2    2   21 1
     3    2    3 1
     4    3    4 1
     5    4    5 1
     6    4   19 1
     7    5    6 1
     8    6   10 1
     9    6    7 2
    10    7    8 1
    11    8    9 1
    12    9   10 2
    13   10   11 1
    14   11   18 1
    15   11   12 2
    16   12   13 1
    17   13   14 2
    18   14   15 1
    19   14   18 1
    20   15   16 am
    21   15   17 2
    22   19   20 1
    23   20   21 1
    24   21   22 1
    25   22   31 ar
    26   22   23 ar
    27   23   24 ar
    28   24   25 ar
    29   25   26 1
    30   25   30 ar
    31   26   27 1
    32   26   28 1
    33   26   29 1
    34   30   31 ar
@<TRIPOS>SUBSTRUCTURE
     1 UNK     1 RESIDUE           4 A     UNK     0 ROOT

#	Name: CHEMBL3578214
#	Creating user name:	j2ho
#	Creation time:	10. 04. 2025 18:01
#	Modifying user name:	j2ho
#	Modification time:	10. 04. 2025 18:01
#	Program:	corina 5.0.0 0026  29.08.2023
@<TRIPOS>MOLECULE
CHEMBL3578214
26 29 1 0 0
SMALL
NO_CHARGES


@<TRIPOS>ATOM
      1 N1         -1.1104    2.1876    0.0110 N.pl3     1 UNK    0.0000
      2 C2          0.0683    1.4670    0.0025 C.ar      1 UNK    0.0000
      3 N3          0.0917    0.2037   -0.4115 N.ar      1 UNK    0.0000
      4 C4          1.2168   -0.4885   -0.4268 C.ar      1 UNK    0.0000
      5 N5          2.3673    0.0173   -0.0399 N.ar      1 UNK    0.0000
      6 C6          2.4463    1.2757    0.3920 C.ar      1 UNK    0.0000
      7 C7          1.2729    2.0523    0.4255 C.ar      1 UNK    0.0000
      8 C8          1.6612    3.3674    0.9345 C.2       1 UNK    0.0000
      9 C9          0.7623    4.5268    1.1479 C.ar      1 UNK    0.0000
     10 C10         1.1561    5.8012    0.7424 C.ar      1 UNK    0.0000
     11 C11         0.3137    6.8761    0.9389 C.ar      1 UNK    0.0000
     12 C12        -0.9166    6.6924    1.5467 C.ar      1 UNK    0.0000
     13 Cl13       -1.9691    8.0502    1.7970 Cl        1 UNK    0.0000
     14 C14        -1.3104    5.4298    1.9560 C.ar      1 UNK    0.0000
     15 C15        -0.4774    4.3474    1.7598 C.ar      1 UNK    0.0000
     16 N16         2.9518    3.3315    1.1679 N.2       1 UNK    0.0000
     17 N17         3.4582    2.0676    0.8471 N.pl3     1 UNK    0.0000
     18 C18         4.8588    1.6586    0.9793 C.3       1 UNK    0.0000
     19 C19         5.6037    1.9620   -0.3222 C.3       1 UNK    0.0000
     20 Cl20        4.9327    0.9435   -1.6501 Cl        1 UNK    0.0000
     21 C21         7.0686    1.6558   -0.1456 C.ar      1 UNK    0.0000
     22 C22         7.4805    0.3562    0.0828 C.ar      1 UNK    0.0000
     23 C23         8.8248    0.0747    0.2400 C.ar      1 UNK    0.0000
     24 C24         9.7562    1.0943    0.1791 C.ar      1 UNK    0.0000
     25 C25         9.3438    2.3947   -0.0441 C.ar      1 UNK    0.0000
     26 C26         8.0000    2.6755   -0.2064 C.ar      1 UNK    0.0000
@<TRIPOS>BOND
     1    1    2 1
     2    2    7 ar
     3    2    3 ar
     4    3    4 ar
     5    4    5 ar
     6    5    6 ar
     7    6   17 1
     8    6    7 ar
     9    7    8 1
    10    8    9 1
    11    8   16 2
    12    9   15 ar
    13    9   10 ar
    14   10   11 ar
    15   11   12 ar
    16   12   13 1
    17   12   14 ar
    18   14   15 ar
    19   16   17 1
    20   17   18 1
    21   18   19 1
    22   19   20 1
    23   19   21 1
    24   21   26 ar
    25   21   22 ar
    26   22   23 ar
    27   23   24 ar
    28   24   25 ar
    29   25   26 ar
@<TRIPOS>SUBSTRUCTURE
     1 UNK     1 RESIDUE           4 A     UNK     0 ROOT

#	Name: CHEMBL3110108
#	Creating user name:	j2ho
#	Creation time:	10. 04. 2025 18:16
#	Modifying user name:	j2ho
#	Modification time:	10. 04. 2025 18:16
#	Program:	corina 5.0.0 0026  29.08.2023
@<TRIPOS>MOLECULE
CHEMBL3110108
33 36 1 0 0
SMALL
NO_CHARGES


@<TRIPOS>ATOM
      1 C1         -0.6297    3.2983    7.4627 C.3       1 UNK    0.0000
      2 O2         -0.5907    2.6795    6.1752 O.3       1 UNK    0.0000
      3 C3          0.0828    1.5024    6.0762 C.ar      1 UNK    0.0000
      4 C4          0.6922    0.9549    7.1936 C.ar      1 UNK    0.0000
      5 C5          1.3765   -0.2420    7.0913 C.ar      1 UNK    0.0000
      6 C6          1.4552   -0.8960    5.8756 C.ar      1 UNK    0.0000
      7 C7          0.8445   -0.3599    4.7578 C.ar      1 UNK    0.0000
      8 C8          0.1613    0.8438    4.8513 C.ar      1 UNK    0.0000
      9 N9         -0.4531    1.3927    3.7179 N.am      1 UNK    0.0000
     10 C10        -0.0025    1.0769    2.4876 C.2       1 UNK    0.0000
     11 O11         0.9954    0.3988    2.3628 O.2       1 UNK    0.0000
     12 C12        -0.7384    1.5664    1.2670 C.3       1 UNK    0.0000
     13 C14        -0.7678    3.0961    1.2684 C.3       1 UNK    0.0000
     14 C15        -1.5150    3.5930    0.0292 C.3       1 UNK    0.0000
     15 C16        -0.8004    3.0979   -1.2298 C.3       1 UNK    0.0000
     16 N18        -1.5158    3.5737   -2.4164 N.am      1 UNK    0.0000
     17 C19        -1.2600    4.8013   -2.9104 C.2       1 UNK    0.0000
     18 O20        -0.4375    5.5121   -2.3726 O.2       1 UNK    0.0000
     19 C21        -1.9959    5.2908   -4.1310 C.3       1 UNK    0.0000
     20 C22        -1.5221    6.7030   -4.4800 C.3       1 UNK    0.0000
     21 C23        -2.2580    7.1925   -5.7007 C.2       1 UNK    0.0000
     22 N24        -3.1278    6.4027   -6.2533 N.2       1 UNK    0.0000
     23 C25        -3.8321    6.7771   -7.3506 C.ar      1 UNK    0.0000
     24 C26        -4.7718    5.9304   -7.9421 C.ar      1 UNK    0.0000
     25 C27        -5.4598    6.3494   -9.0585 C.ar      1 UNK    0.0000
     26 C28        -5.2309    7.6053   -9.6056 C.ar      1 UNK    0.0000
     27 C29        -4.3096    8.4588   -9.0395 C.ar      1 UNK    0.0000
     28 C30        -3.6023    8.0538   -7.9094 C.ar      1 UNK    0.0000
     29 C31        -2.6064    8.9212   -7.2627 C.2       1 UNK    0.0000
     30 O32        -2.3611   10.0329   -7.6936 O.2       1 UNK    0.0000
     31 N33        -1.9733    8.4354   -6.1695 N.am      1 UNK    0.0000
     32 C35        -0.7710    1.5682   -1.2313 C.3       1 UNK    0.0000
     33 C36        -0.0239    1.0712    0.0079 C.3       1 UNK    0.0000
@<TRIPOS>BOND
     1    1    2 1
     2    2    3 1
     3    3    8 ar
     4    3    4 ar
     5    4    5 ar
     6    5    6 ar
     7    6    7 ar
     8    7    8 ar
     9    8    9 1
    10    9   10 am
    11   10   11 2
    12   10   12 1
    13   12   33 1
    14   12   13 1
    15   13   14 1
    16   14   15 1
    17   15   16 1
    18   15   32 1
    19   16   17 am
    20   17   18 2
    21   17   19 1
    22   19   20 1
    23   20   21 1
    24   21   31 1
    25   21   22 2
    26   22   23 1
    27   23   28 ar
    28   23   24 ar
    29   24   25 ar
    30   25   26 ar
    31   26   27 ar
    32   27   28 ar
    33   28   29 1
    34   29   30 2
    35   29   31 am
    36   32   33 1
@<TRIPOS>SUBSTRUCTURE
     1 UNK     1 RESIDUE           4 A     UNK     0 ROOT

#	Name: CHEMBL4472333
#	Creating user name:	j2ho
#	Creation time:	10. 04. 2025 18:07
#	Modifying user name:	j2ho
#	Modification time:	10. 04. 2025 18:07
#	Program:	corina 5.0.0 0026  29.08.2023
@<TRIPOS>MOLECULE
CHEMBL4472333
29 30 1 0 0
SMALL
NO_CHARGES


@<TRIPOS>ATOM
      1 C1          0.5847    3.7503   -1.3973 C.3       1 UNK    0.0000
      2 C2         -0.4655    2.7527   -1.8131 C.2       1 UNK    0.0000
      3 C3         -1.2986    2.8935   -2.8729 C.2       1 UNK    0.0000
      4 C4         -1.3438    4.0349   -3.8174 C.ar      1 UNK    0.0000
      5 C5         -0.2560    4.2988   -4.6490 C.ar      1 UNK    0.0000
      6 C6         -0.3041    5.3624   -5.5266 C.ar      1 UNK    0.0000
      7 C7         -1.4288    6.1662   -5.5827 C.ar      1 UNK    0.0000
      8 C8         -2.5109    5.9093   -4.7603 C.ar      1 UNK    0.0000
      9 S9         -3.9387    6.9389   -4.8386 S.o2      1 UNK    0.0000
     10 O10        -4.5957    6.8096   -3.5853 O.2       1 UNK    0.0000
     11 O11        -3.5057    8.1861   -5.3642 O.2       1 UNK    0.0000
     12 N12        -4.9550    6.2824   -5.9693 N.am      1 UNK    0.0000
     13 C13        -5.9578    5.2933   -5.5665 C.3       1 UNK    0.0000
     14 C14        -4.8512    6.6907   -7.3724 C.3       1 UNK    0.0000
     15 C15        -2.4763    4.8453   -3.8819 C.ar      1 UNK    0.0000
     16 C16        -2.1503    1.6936   -2.9033 C.ar      1 UNK    0.0000
     17 C17        -3.1800    1.2582   -3.7362 C.ar      1 UNK    0.0000
     18 C18        -3.7897    0.0593   -3.4923 C.ar      1 UNK    0.0000
     19 C19        -3.3908   -0.7285   -2.4215 C.ar      1 UNK    0.0000
     20 C20        -2.3758   -0.3163   -1.5863 C.ar      1 UNK    0.0000
     21 C21        -1.7384    0.8985   -1.8203 C.ar      1 UNK    0.0000
     22 N22        -0.7213    1.5711   -1.1789 N.pl3     1 UNK    0.0000
     23 C23        -0.0127    1.0858    0.0080 C.3       1 UNK    0.0000
     24 C24        -0.7181    1.5718    1.2479 C.2       1 UNK    0.0000
     25 F25        -0.4435    2.7978    1.7446 F         1 UNK    0.0000
     26 C26        -1.5995    0.8037    1.8455 C.2       1 UNK    0.0000
     27 C27        -2.3049    1.2897    3.0853 C.3       1 UNK    0.0000
     28 N28        -3.7580    1.2076    2.8860 N.3       1 UNK    0.0000
     29 Cl29        5.5847   13.1861    8.0853 Cl        1 UNK    0.0000
@<TRIPOS>BOND
     1    1    2 1
     2    2   22 1
     3    2    3 2
     4    3    4 1
     5    3   16 1
     6    4   15 ar
     7    4    5 ar
     8    5    6 ar
     9    6    7 ar
    10    7    8 ar
    11    8    9 1
    12    8   15 ar
    13    9   10 2
    14    9   11 2
    15    9   12 am
    16   12   13 1
    17   12   14 1
    18   16   21 ar
    19   16   17 ar
    20   17   18 ar
    21   18   19 ar
    22   19   20 ar
    23   20   21 ar
    24   21   22 1
    25   22   23 1
    26   23   24 1
    27   24   25 1
    28   24   26 2
    29   26   27 1
    30   27   28 1
@<TRIPOS>SUBSTRUCTURE
     1 UNK     1 RESIDUE           4 A     UNK     0 ROOT

#	Name: CHEMBL4170653
#	Creating user name:	j2ho
#	Creation time:	10. 04. 2025 18:13
#	Modifying user name:	j2ho
#	Modification time:	10. 04. 2025 18:13
#	Program:	corina 5.0.0 0026  29.08.2023
@<TRIPOS>MOLECULE
CHEMBL4170653
30 34 1 0 0
SMALL
NO_CHARGES


@<TRIPOS>ATOM
      1 N1          3.7114   10.4076   -0.8813 N.am      1 UNK    0.0000
      2 S2          2.9639    9.9487   -2.2860 S.o2      1 UNK    0.0000
      3 O3          3.6302    8.7749   -2.7302 O.2       1 UNK    0.0000
      4 O4          2.8446   11.1219   -3.0788 O.2       1 UNK    0.0000
      5 C5          1.3229    9.4614   -1.8684 C.ar      1 UNK    0.0000
      6 C6          0.3030   10.3963   -1.8720 C.ar      1 UNK    0.0000
      7 C7         -0.9874   10.0212   -1.5449 C.ar      1 UNK    0.0000
      8 C8         -1.2647    8.7105   -1.2128 C.ar      1 UNK    0.0000
      9 C9         -0.2413    7.7643   -1.2075 C.ar      1 UNK    0.0000
     10 C10        -0.5328    6.3548   -0.8510 C.ar      1 UNK    0.0000
     11 N11        -1.7724    6.0319   -0.4873 N.ar      1 UNK    0.0000
     12 C12        -2.0936    4.7899   -0.1578 C.ar      1 UNK    0.0000
     13 N13        -3.3815    4.4682    0.2177 N.pl3     1 UNK    0.0000
     14 C14        -4.3371    5.4792    0.3787 C.2       1 UNK    0.0000
     15 C15        -4.0942    6.8611    0.3189 C.2       1 UNK    0.0000
     16 C16        -5.2701    7.4981    0.5201 C.2       1 UNK    0.0000
     17 C17        -5.4794    8.9904    0.5355 C.3       1 UNK    0.0000
     18 C18        -6.5391    9.5453    1.4895 C.3       1 UNK    0.0000
     19 C19        -6.8021    9.5239   -0.0183 C.3       1 UNK    0.0000
     20 N20        -6.2219    6.5602    0.7102 N.pl3     1 UNK    0.0000
     21 N22        -5.6152    5.3010    0.6174 N.2       1 UNK    0.0000
     22 C23        -1.0800    3.7995   -0.2003 C.ar      1 UNK    0.0000
     23 C24        -1.3348    2.4637    0.1264 C.ar      1 UNK    0.0000
     24 C25        -0.3194    1.5525    0.0728 C.ar      1 UNK    0.0000
     25 Cl26       -0.6330   -0.1045    0.4848 Cl        1 UNK    0.0000
     26 C27         0.9635    1.9336   -0.3136 C.ar      1 UNK    0.0000
     27 C28         1.2425    3.2265   -0.6428 C.ar      1 UNK    0.0000
     28 C29         0.2242    4.1892   -0.5931 C.ar      1 UNK    0.0000
     29 N30         0.4473    5.4726   -0.9075 N.ar      1 UNK    0.0000
     30 C31         1.0585    8.1494   -1.5329 C.ar      1 UNK    0.0000
@<TRIPOS>BOND
     1    1    2 am
     2    2    3 2
     3    2    4 2
     4    2    5 1
     5    5   30 ar
     6    5    6 ar
     7    6    7 ar
     8    7    8 ar
     9    8    9 ar
    10    9   10 1
    11    9   30 ar
    12   10   29 ar
    13   10   11 ar
    14   11   12 ar
    15   12   13 1
    16   12   22 ar
    17   13   14 1
    18   14   21 2
    19   14   15 1
    20   15   16 2
    21   16   17 1
    22   16   20 1
    23   17   19 1
    24   17   18 1
    25   18   19 1
    26   20   21 1
    27   22   28 ar
    28   22   23 ar
    29   23   24 ar
    30   24   25 1
    31   24   26 ar
    32   26   27 ar
    33   27   28 ar
    34   28   29 ar
@<TRIPOS>SUBSTRUCTURE
     1 UNK     1 RESIDUE           4 A     UNK     0 ROOT

#	Name: CHEMBL249317
#	Creating user name:	j2ho
#	Creation time:	10. 04. 2025 18:11
#	Modifying user name:	j2ho
#	Modification time:	10. 04. 2025 18:11
#	Program:	corina 5.0.0 0026  29.08.2023
@<TRIPOS>MOLECULE
CHEMBL249317
26 28 1 0 0
SMALL
NO_CHARGES


@<TRIPOS>ATOM
      1 C1          6.1121   -1.7027   -1.1762 C.3       1 UNK    0.0000
      2 C2          5.8585   -0.2175   -1.2093 C.ar      1 UNK    0.0000
      3 C3          6.8391    0.6402   -1.6692 C.ar      1 UNK    0.0000
      4 C4          6.6095    2.0024   -1.7016 C.ar      1 UNK    0.0000
      5 C5          5.3924    2.5135   -1.2721 C.ar      1 UNK    0.0000
      6 O6          5.1680    3.8534   -1.3050 O.3       1 UNK    0.0000
      7 C7          4.4045    1.6562   -0.8145 C.ar      1 UNK    0.0000
      8 C8          4.6387    0.2883   -0.7777 C.ar      1 UNK    0.0000
      9 N9          3.6465   -0.5794   -0.3123 N.pl3     1 UNK    0.0000
     10 C10         2.3210   -0.3659   -0.6580 C.ar      1 UNK    0.0000
     11 C11         1.3451   -1.3148   -0.3445 C.ar      1 UNK    0.0000
     12 C12         0.0375   -1.0601   -0.7088 C.ar      1 UNK    0.0000
     13 N13        -0.2514    0.0684   -1.3403 N.ar      1 UNK    0.0000
     14 C14         0.6947    0.9509   -1.6251 C.ar      1 UNK    0.0000
     15 N15         0.3518    2.1187   -2.2866 N.pl3     1 UNK    0.0000
     16 C16        -0.9613    2.3140   -2.7251 C.ar      1 UNK    0.0000
     17 C17        -1.6896    1.2482   -3.2385 C.ar      1 UNK    0.0000
     18 C18        -2.9880    1.4434   -3.6659 C.ar      1 UNK    0.0000
     19 C19        -3.5598    2.7007   -3.5939 C.ar      1 UNK    0.0000
     20 C20        -2.8359    3.7647   -3.0883 C.ar      1 UNK    0.0000
     21 S21        -3.5694    5.3643   -2.9978 S.o2      1 UNK    0.0000
     22 N22        -3.2392    6.1365   -4.4250 N.am      1 UNK    0.0000
     23 O23        -4.9753    5.1599   -2.9681 O.2       1 UNK    0.0000
     24 O24        -2.8654    6.0719   -1.9864 O.2       1 UNK    0.0000
     25 C25        -1.5386    3.5751   -2.6538 C.ar      1 UNK    0.0000
     26 N26         1.9603    0.7445   -1.2932 N.ar      1 UNK    0.0000
@<TRIPOS>BOND
     1    1    2 1
     2    2    8 ar
     3    2    3 ar
     4    3    4 ar
     5    4    5 ar
     6    5    6 1
     7    5    7 ar
     8    7    8 ar
     9    8    9 1
    10    9   10 1
    11   10   26 ar
    12   10   11 ar
    13   11   12 ar
    14   12   13 ar
    15   13   14 ar
    16   14   15 1
    17   14   26 ar
    18   15   16 1
    19   16   25 ar
    20   16   17 ar
    21   17   18 ar
    22   18   19 ar
    23   19   20 ar
    24   20   21 1
    25   20   25 ar
    26   21   22 am
    27   21   23 2
    28   21   24 2
@<TRIPOS>SUBSTRUCTURE
     1 UNK     1 RESIDUE           4 A     UNK     0 ROOT

#	Name: CHEMBL3342415
#	Creating user name:	j2ho
#	Creation time:	10. 04. 2025 18:13
#	Modifying user name:	j2ho
#	Modification time:	10. 04. 2025 18:13
#	Program:	corina 5.0.0 0026  29.08.2023
@<TRIPOS>MOLECULE
CHEMBL3342415
29 32 1 0 0
SMALL
NO_CHARGES


@<TRIPOS>ATOM
      1 C1         -1.5128    2.2650    2.6008 C.3       1 UNK    0.0000
      2 C2         -1.9853    2.3906    1.1753 C.2       1 UNK    0.0000
      3 N3         -3.0921    2.9555    0.7836 N.2       1 UNK    0.0000
      4 N4         -3.1814    2.8755   -0.6102 N.pl3     1 UNK    0.0000
      5 C5         -4.2796    3.3958   -1.4284 C.3       1 UNK    0.0000
      6 C6         -2.0857    2.2446   -1.0739 C.2       1 UNK    0.0000
      7 O7         -1.8000    1.9781   -2.3694 O.3       1 UNK    0.0000
      8 C8         -1.3040    1.9150    0.0297 C.2       1 UNK    0.0000
      9 C9         -0.0145    1.2127    0.0086 C.2       1 UNK    0.0000
     10 O10         0.0158   -0.0039   -0.0021 O.2       1 UNK    0.0000
     11 C11         1.2456    1.9829   -0.0057 C.ar      1 UNK    0.0000
     12 C12         1.2089    3.3812   -0.1097 C.ar      1 UNK    0.0000
     13 C13         2.3598    4.1104   -0.1243 C.ar      1 UNK    0.0000
     14 C14         3.5980    3.4655   -0.0344 C.ar      1 UNK    0.0000
     15 N15         4.7603    4.1608   -0.0461 N.2       1 UNK    0.0000
     16 C16         5.9124    3.5655    0.0367 C.2       1 UNK    0.0000
     17 C17         7.1580    4.4136    0.0167 C.3       1 UNK    0.0000
     18 N18         6.0520    2.2176    0.1400 N.am      1 UNK    0.0000
     19 C19         7.3333    1.6565    0.2238 C.ar      1 UNK    0.0000
     20 C20         7.9319    1.4707    1.4624 C.ar      1 UNK    0.0000
     21 C21         9.1925    0.9116    1.5424 C.ar      1 UNK    0.0000
     22 C22         9.8645    0.5479    0.3898 C.ar      1 UNK    0.0000
     23 C23         9.2752    0.7360   -0.8466 C.ar      1 UNK    0.0000
     24 C24         8.0105    1.2896   -0.9339 C.ar      1 UNK    0.0000
     25 F25         7.4345    1.4740   -2.1420 F         1 UNK    0.0000
     26 C26         4.9643    1.4125    0.1622 C.2       1 UNK    0.0000
     27 O27         5.0739    0.2039    0.2547 O.2       1 UNK    0.0000
     28 C28         3.6445    2.0554    0.0707 C.ar      1 UNK    0.0000
     29 C29         2.4664    1.3185    0.0898 C.ar      1 UNK    0.0000
@<TRIPOS>BOND
     1    1    2 1
     2    2    8 1
     3    2    3 2
     4    3    4 1
     5    4    5 1
     6    4    6 1
     7    6    7 1
     8    6    8 2
     9    8    9 1
    10    9   10 2
    11    9   11 1
    12   11   29 ar
    13   11   12 ar
    14   12   13 ar
    15   13   14 ar
    16   14   28 ar
    17   14   15 1
    18   15   16 2
    19   16   17 1
    20   16   18 1
    21   18   19 1
    22   18   26 am
    23   19   24 ar
    24   19   20 ar
    25   20   21 ar
    26   21   22 ar
    27   22   23 ar
    28   23   24 ar
    29   24   25 1
    30   26   27 2
    31   26   28 1
    32   28   29 ar
@<TRIPOS>SUBSTRUCTURE
     1 UNK     1 RESIDUE           4 A     UNK     0 ROOT

#	Name: CHEMBL4293865
#	Creating user name:	j2ho
#	Creation time:	10. 04. 2025 18:11
#	Modifying user name:	j2ho
#	Modification time:	10. 04. 2025 18:11
#	Program:	corina 5.0.0 0026  29.08.2023
@<TRIPOS>MOLECULE
CHEMBL4293865
26 28 1 0 0
SMALL
NO_CHARGES


@<TRIPOS>ATOM
      1 C1         -1.0410    3.9085    2.3404 C.3       1 UNK    0.0000
      2 O2         -0.9134    3.5788    0.9558 O.3       1 UNK    0.0000
      3 C3         -2.0386    2.8809    0.4184 C.3       1 UNK    0.0000
      4 C4         -1.7935    2.5813   -1.0618 C.3       1 UNK    0.0000
      5 N5         -0.6651    1.6562   -1.1925 N.pl3     1 UNK    0.0000
      6 C6         -0.3177    1.1666   -2.4284 C.2       1 UNK    0.0000
      7 C7          0.6897    0.2047   -2.5409 C.2       1 UNK    0.0000
      8 N8          1.0641   -0.4533   -3.6761 N.2       1 UNK    0.0000
      9 C9          2.0348   -1.2675   -3.3937 C.2       1 UNK    0.0000
     10 N10         2.3370   -1.1911   -2.0616 N.am      1 UNK    0.0000
     11 C11         3.3719   -1.9621   -1.3682 C.3       1 UNK    0.0000
     12 C12         2.7714   -3.2697   -0.8484 C.3       1 UNK    0.0000
     13 O13         2.3711   -4.0825   -1.9534 O.3       1 UNK    0.0000
     14 C14         1.7941   -5.3340   -1.5755 C.3       1 UNK    0.0000
     15 C15         1.5151   -0.2801   -1.4979 C.2       1 UNK    0.0000
     16 O16         1.4892    0.0576   -0.3256 O.2       1 UNK    0.0000
     17 C17        -1.0027    1.6526   -3.6271 C.2       1 UNK    0.0000
     18 N18        -2.3389    1.4561   -3.9230 N.pl3     1 UNK    0.0000
     19 C20        -2.6186    2.0571   -5.1291 C.ar      1 UNK    0.0000
     20 C21        -3.7787    2.1691   -5.8895 C.ar      1 UNK    0.0000
     21 C22        -3.7499    2.8494   -7.0867 C.ar      1 UNK    0.0000
     22 C23        -2.5721    3.4260   -7.5455 C.ar      1 UNK    0.0000
     23 C24        -1.4219    3.3296   -6.8177 C.ar      1 UNK    0.0000
     24 C25        -1.4255    2.6429   -5.5961 C.ar      1 UNK    0.0000
     25 C26        -0.4270    2.3769   -4.6286 C.2       1 UNK    0.0000
     26 I27         1.5761    2.9837   -4.7209 I         1 UNK    0.0000
@<TRIPOS>BOND
     1    1    2 1
     2    2    3 1
     3    3    4 1
     4    4    5 1
     5    5    6 1
     6    6    7 2
     7    6   17 1
     8    7   15 1
     9    7    8 1
    10    8    9 2
    11    9   10 1
    12   10   11 1
    13   10   15 am
    14   11   12 1
    15   12   13 1
    16   13   14 1
    17   15   16 2
    18   17   25 2
    19   17   18 1
    20   18   19 1
    21   19   24 ar
    22   19   20 ar
    23   20   21 ar
    24   21   22 ar
    25   22   23 ar
    26   23   24 ar
    27   24   25 1
    28   25   26 1
@<TRIPOS>SUBSTRUCTURE
     1 UNK     1 RESIDUE           4 A     UNK     0 ROOT

#	Name: CHEMBL102384
#	Creating user name:	j2ho
#	Creation time:	10. 04. 2025 18:14
#	Modifying user name:	j2ho
#	Modification time:	10. 04. 2025 18:14
#	Program:	corina 5.0.0 0026  29.08.2023
@<TRIPOS>MOLECULE
CHEMBL102384
31 34 1 0 0
SMALL
NO_CHARGES


@<TRIPOS>ATOM
      1 O1          3.2698    0.6848   -6.5609 O.2       1 UNK    0.0000
      2 C2          3.6496    0.3213   -5.4678 C.2       1 UNK    0.0000
      3 C3          2.8837    0.6806   -4.2674 C.ar      1 UNK    0.0000
      4 C4          1.7145    1.4428   -4.3819 C.ar      1 UNK    0.0000
      5 C5          1.0034    1.7759   -3.2579 C.ar      1 UNK    0.0000
      6 C6          1.4416    1.3586   -2.0057 C.ar      1 UNK    0.0000
      7 O7          0.7346    1.6912   -0.8967 O.3       1 UNK    0.0000
      8 C8          1.2406    1.2303    0.3577 C.3       1 UNK    0.0000
      9 C9          0.3172    1.6998    1.4837 C.3       1 UNK    0.0000
     10 C10         0.8589    1.2063    2.8268 C.3       1 UNK    0.0000
     11 N11        -0.0277    1.6571    3.9079 N.3       1 UNK    0.0000
     12 C12        -1.4371    1.2765    3.6341 C.3       1 UNK    0.0000
     13 C13        -2.0988    1.3366    5.0337 C.3       1 UNK    0.0000
     14 C14        -0.9891    0.7958    5.9643 C.3       1 UNK    0.0000
     15 N16        -0.9648    1.5514    7.2192 N.am      1 UNK    0.0000
     16 S17        -1.6898    0.9318    8.5730 S.o2      1 UNK    0.0000
     17 O18        -1.4570    1.8675    9.6167 O.2       1 UNK    0.0000
     18 O19        -2.9897    0.5161    8.1774 O.2       1 UNK    0.0000
     19 C20        -0.8115   -0.5314    9.0116 C.ar      1 UNK    0.0000
     20 C21        -1.4465   -1.7585    8.9666 C.ar      1 UNK    0.0000
     21 C22        -0.7576   -2.9065    9.3103 C.ar      1 UNK    0.0000
     22 C23         0.5667   -2.8281    9.7001 C.ar      1 UNK    0.0000
     23 C24         1.2024   -1.6019    9.7459 C.ar      1 UNK    0.0000
     24 C25         0.5151   -0.4531    9.3956 C.ar      1 UNK    0.0000
     25 Cl26        1.3154    1.0866    9.4449 Cl        1 UNK    0.0000
     26 C27         0.3244    1.0060    5.1883 C.3       1 UNK    0.0000
     27 C28         2.6052    0.6063   -1.8859 C.ar      1 UNK    0.0000
     28 C29         3.3204    0.2625   -3.0042 C.ar      1 UNK    0.0000
     29 C30         4.9075   -0.4990   -5.3416 C.3       1 UNK    0.0000
     30 C31         6.1185   -0.0675   -6.1711 C.3       1 UNK    0.0000
     31 C32         5.3368   -1.3253   -6.5557 C.3       1 UNK    0.0000
@<TRIPOS>BOND
     1    1    2 2
     2    2    3 1
     3    2   29 1
     4    3   28 ar
     5    3    4 ar
     6    4    5 ar
     7    5    6 ar
     8    6    7 1
     9    6   27 ar
    10    7    8 1
    11    8    9 1
    12    9   10 1
    13   10   11 1
    14   11   26 1
    15   11   12 1
    16   12   13 1
    17   13   14 1
    18   14   15 1
    19   14   26 1
    20   15   16 am
    21   16   17 2
    22   16   18 2
    23   16   19 1
    24   19   24 ar
    25   19   20 ar
    26   20   21 ar
    27   21   22 ar
    28   22   23 ar
    29   23   24 ar
    30   24   25 1
    31   27   28 ar
    32   29   31 1
    33   29   30 1
    34   30   31 1
@<TRIPOS>SUBSTRUCTURE
     1 UNK     1 RESIDUE           4 A     UNK     0 ROOT

#	Name: CHEMBL1965988
#	Creating user name:	j2ho
#	Creation time:	10. 04. 2025 17:58
#	Modifying user name:	j2ho
#	Modification time:	10. 04. 2025 17:58
#	Program:	corina 5.0.0 0026  29.08.2023
@<TRIPOS>MOLECULE
CHEMBL1965988
31 34 1 0 0
SMALL
NO_CHARGES


@<TRIPOS>ATOM
      1 C1          8.7791   14.8037    0.8173 C.3       1 UNK    0.0000
      2 C2          7.4517   14.1638    1.1328 C.ar      1 UNK    0.0000
      3 C3          6.8864   14.3265    2.3845 C.ar      1 UNK    0.0000
      4 C4          5.6687   13.7411    2.6778 C.ar      1 UNK    0.0000
      5 C5          5.0101   12.9961    1.7190 C.ar      1 UNK    0.0000
      6 C6          5.5774   12.8265    0.4631 C.ar      1 UNK    0.0000
      7 N7          4.9152   12.0680   -0.5087 N.am      1 UNK    0.0000
      8 C8          4.2865   10.9277   -0.1608 C.2       1 UNK    0.0000
      9 O9          4.2163   10.6049    1.0094 O.2       1 UNK    0.0000
     10 N10         3.7357   10.1453   -1.1099 N.am      1 UNK    0.0000
     11 C11         3.1773    8.9101   -0.7613 C.ar      1 UNK    0.0000
     12 C12         2.0290    8.4623   -1.4028 C.ar      1 UNK    0.0000
     13 C13         1.4769    7.2458   -1.0613 C.ar      1 UNK    0.0000
     14 C14         2.0722    6.4645   -0.0715 C.ar      1 UNK    0.0000
     15 C15         1.4807    5.1566    0.2981 C.2       1 UNK    0.0000
     16 C16         1.1029    4.8617    1.5406 C.2       1 UNK    0.0000
     17 S17         0.4454    3.2393    1.6367 S.3       1 UNK    0.0000
     18 C18         0.6969    2.9590   -0.0786 C.ar      1 UNK    0.0000
     19 C19         0.4203    1.8331   -0.8918 C.ar      1 UNK    0.0000
     20 C20        -0.1677    0.6559   -0.3268 C.1       1 UNK    0.0000
     21 C21        -0.6497   -0.3091    0.1364 C.1       1 UNK    0.0000
     22 C22        -1.2540   -1.5192    0.7171 C.3       1 UNK    0.0000
     23 N23        -1.4808   -1.3121    2.1537 N.3       1 UNK    0.0000
     24 C24         0.7313    1.8853   -2.2427 C.ar      1 UNK    0.0000
     25 N25         1.2692    2.9704   -2.7723 N.ar      1 UNK    0.0000
     26 C26         1.5405    4.0447   -2.0580 C.ar      1 UNK    0.0000
     27 N27         2.1055    5.1506   -2.6753 N.pl3     1 UNK    0.0000
     28 C28         1.2642    4.0863   -0.6695 C.ar      1 UNK    0.0000
     29 C29         3.2219    6.9185    0.5742 C.ar      1 UNK    0.0000
     30 C30         3.7726    8.1336    0.2254 C.ar      1 UNK    0.0000
     31 C31         6.8007   13.4159    0.1716 C.ar      1 UNK    0.0000
@<TRIPOS>BOND
     1    1    2 1
     2    2   31 ar
     3    2    3 ar
     4    3    4 ar
     5    4    5 ar
     6    5    6 ar
     7    6    7 1
     8    6   31 ar
     9    7    8 am
    10    8    9 2
    11    8   10 am
    12   10   11 1
    13   11   30 ar
    14   11   12 ar
    15   12   13 ar
    16   13   14 ar
    17   14   15 1
    18   14   29 ar
    19   15   28 1
    20   15   16 2
    21   16   17 1
    22   17   18 1
    23   18   28 ar
    24   18   19 ar
    25   19   20 1
    26   19   24 ar
    27   20   21 3
    28   21   22 1
    29   22   23 1
    30   24   25 ar
    31   25   26 ar
    32   26   27 1
    33   26   28 ar
    34   29   30 ar
@<TRIPOS>SUBSTRUCTURE
     1 UNK     1 RESIDUE           4 A     UNK     0 ROOT

#	Name: CHEMBL3701477
#	Creating user name:	j2ho
#	Creation time:	10. 04. 2025 18:12
#	Modifying user name:	j2ho
#	Modification time:	10. 04. 2025 18:12
#	Program:	corina 5.0.0 0026  29.08.2023
@<TRIPOS>MOLECULE
CHEMBL3701477
29 31 1 0 0
SMALL
NO_CHARGES


@<TRIPOS>ATOM
      1 C1          3.6505    6.1917    0.5154 C.3       1 UNK    0.0000
      2 C2          2.3703    5.6240   -0.1007 C.3       1 UNK    0.0000
      3 C3          2.2887    6.0315   -1.5732 C.3       1 UNK    0.0000
      4 N4          2.3855    4.1627    0.0015 N.pl3     1 UNK    0.0000
      5 C5          1.1959    3.4577    0.0096 C.ar      1 UNK    0.0000
      6 N6          0.0414    4.1053    0.0319 N.ar      1 UNK    0.0000
      7 C7         -1.1281    3.4710    0.0400 C.ar      1 UNK    0.0000
      8 C8         -2.3812    4.2634    0.0657 C.ar      1 UNK    0.0000
      9 C9         -3.6132    3.6208    0.1797 C.ar      1 UNK    0.0000
     10 C10        -4.7760    4.3633    0.2030 C.ar      1 UNK    0.0000
     11 C11        -4.7210    5.7428    0.1136 C.ar      1 UNK    0.0000
     12 C12        -3.5016    6.3858    0.0008 C.ar      1 UNK    0.0000
     13 S13        -3.4412    8.1431   -0.1113 S.o2      1 UNK    0.0000
     14 O14        -2.2132    8.4624   -0.7511 O.2       1 UNK    0.0000
     15 O15        -4.7067    8.5573   -0.6075 O.2       1 UNK    0.0000
     16 N16        -3.3300    8.7294    1.4334 N.am      1 UNK    0.0000
     17 C17        -2.1417    8.4440    2.2414 C.3       1 UNK    0.0000
     18 C18        -2.1100    9.3812    3.4504 C.3       1 UNK    0.0000
     19 O19        -3.2226    9.0986    4.3014 O.3       1 UNK    0.0000
     20 C20        -2.3316    5.6537   -0.0183 C.ar      1 UNK    0.0000
     21 C21        -1.2028    2.0840    0.0308 C.ar      1 UNK    0.0000
     22 C22        -0.0164    1.3489    0.0017 C.ar      1 UNK    0.0000
     23 N23         0.0019   -0.0039   -0.0133 N.2       1 UNK    0.0000
     24 C24         1.1211   -0.6656   -0.0348 C.2       1 UNK    0.0000
     25 N25         2.3406   -0.0692   -0.0440 N.am      1 UNK    0.0000
     26 C26         3.5505   -0.8949   -0.0685 C.3       1 UNK    0.0000
     27 C27         2.4513    1.2802   -0.0302 C.2       1 UNK    0.0000
     28 O28         3.5396    1.8263   -0.0382 O.2       1 UNK    0.0000
     29 C29         1.2102    2.0565   -0.0063 C.ar      1 UNK    0.0000
@<TRIPOS>BOND
     1    1    2 1
     2    2    3 1
     3    2    4 1
     4    4    5 1
     5    5   29 ar
     6    5    6 ar
     7    6    7 ar
     8    7    8 1
     9    7   21 ar
    10    8   20 ar
    11    8    9 ar
    12    9   10 ar
    13   10   11 ar
    14   11   12 ar
    15   12   13 1
    16   12   20 ar
    17   13   14 2
    18   13   15 2
    19   13   16 am
    20   16   17 1
    21   17   18 1
    22   18   19 1
    23   21   22 ar
    24   22   29 ar
    25   22   23 1
    26   23   24 2
    27   24   25 1
    28   25   26 1
    29   25   27 am
    30   27   28 2
    31   27   29 1
@<TRIPOS>SUBSTRUCTURE
     1 UNK     1 RESIDUE           4 A     UNK     0 ROOT

#	Name: CHEMBL409920
#	Creating user name:	j2ho
#	Creation time:	10. 04. 2025 18:09
#	Modifying user name:	j2ho
#	Modification time:	10. 04. 2025 18:09
#	Program:	corina 5.0.0 0026  29.08.2023
@<TRIPOS>MOLECULE
CHEMBL409920
29 30 1 0 0
SMALL
NO_CHARGES


@<TRIPOS>ATOM
      1 C1          2.8984    7.8526   -4.1682 C.3       1 UNK    0.0000
      2 C2          1.8395    6.8403   -3.7266 C.3       1 UNK    0.0000
      3 C3          1.8732    5.6276   -4.6588 C.3       1 UNK    0.0000
      4 C4          2.1305    6.3903   -2.2936 C.3       1 UNK    0.0000
      5 N5          1.0525    5.5140   -1.8285 N.am      1 UNK    0.0000
      6 C6          1.1419    4.0671   -2.0403 C.3       1 UNK    0.0000
      7 C7          1.8392    3.4185   -0.8429 C.3       1 UNK    0.0000
      8 O9          3.1537    3.9619   -0.7054 O.3       1 UNK    0.0000
      9 C10         1.9311    1.9302   -1.0608 C.2       1 UNK    0.0000
     10 O11         3.0114    1.4034   -1.1852 O.2       1 UNK    0.0000
     11 O12         0.8129    1.1897   -1.1166 O.3       1 UNK    0.0000
     12 C13        -0.0214    6.0388   -1.2058 C.2       1 UNK    0.0000
     13 O14        -0.9160    5.3115   -0.8199 O.2       1 UNK    0.0000
     14 N15        -0.1036    7.3699   -1.0110 N.am      1 UNK    0.0000
     15 C16        -1.2709    7.9404   -0.3341 C.3       1 UNK    0.0000
     16 C18        -0.8717    9.2450    0.3585 C.3       1 UNK    0.0000
     17 C19         0.1230    8.9495    1.4513 C.ar      1 UNK    0.0000
     18 C20         1.4555    9.1134    1.2263 C.ar      1 UNK    0.0000
     19 C21         2.3895    8.8519    2.2266 C.ar      1 UNK    0.0000
     20 C22         1.9976    8.4126    3.4539 C.ar      1 UNK    0.0000
     21 C23         0.6310    8.2254    3.7215 C.ar      1 UNK    0.0000
     22 C24         0.1883    7.7733    4.9765 C.ar      1 UNK    0.0000
     23 C25        -1.1434    7.6031    5.1994 C.ar      1 UNK    0.0000
     24 C26        -2.0782    7.8706    4.2007 C.ar      1 UNK    0.0000
     25 C27        -1.6865    8.3102    2.9737 C.ar      1 UNK    0.0000
     26 C28        -0.3197    8.4980    2.7060 C.ar      1 UNK    0.0000
     27 C29        -2.3519    8.2195   -1.3464 C.2       1 UNK    0.0000
     28 O30        -2.1663    7.9676   -2.5134 O.2       1 UNK    0.0000
     29 O31        -3.5209    8.7478   -0.9514 O.3       1 UNK    0.0000
@<TRIPOS>BOND
     1    1    2 1
     2    2    3 1
     3    2    4 1
     4    4    5 1
     5    5    6 1
     6    5   12 am
     7    6    7 1
     8    7    8 1
     9    7    9 1
    10    9   10 2
    11    9   11 1
    12   12   13 2
    13   12   14 am
    14   14   15 1
    15   15   16 1
    16   15   27 1
    17   16   17 1
    18   17   26 ar
    19   17   18 ar
    20   18   19 ar
    21   19   20 ar
    22   20   21 ar
    23   21   26 ar
    24   21   22 ar
    25   22   23 ar
    26   23   24 ar
    27   24   25 ar
    28   25   26 ar
    29   27   28 2
    30   27   29 1
@<TRIPOS>SUBSTRUCTURE
     1 UNK     1 RESIDUE           4 A     UNK     0 ROOT

#	Name: CHEMBL234649
#	Creating user name:	j2ho
#	Creation time:	10. 04. 2025 18:07
#	Modifying user name:	j2ho
#	Modification time:	10. 04. 2025 18:07
#	Program:	corina 5.0.0 0026  29.08.2023
@<TRIPOS>MOLECULE
CHEMBL234649
33 36 1 0 0
SMALL
NO_CHARGES


@<TRIPOS>ATOM
      1 C1         11.1544    3.8766    4.9447 C.3       1 UNK    0.0000
      2 C2         11.7764    2.5038    4.6816 C.3       1 UNK    0.0000
      3 C3         11.3882    1.5436    5.8078 C.3       1 UNK    0.0000
      4 O4         11.2972    1.9947    3.4353 O.3       1 UNK    0.0000
      5 C5         11.9570    2.3882    2.3129 C.ar      1 UNK    0.0000
      6 C6         12.9691    3.3300    2.3967 C.ar      1 UNK    0.0000
      7 C7         13.6352    3.7333    1.2540 C.ar      1 UNK    0.0000
      8 C8         13.2978    3.1947    0.0262 C.ar      1 UNK    0.0000
      9 C9         12.2928    2.2502   -0.0653 C.ar      1 UNK    0.0000
     10 C10        11.6203    1.8407    1.0768 C.ar      1 UNK    0.0000
     11 N11        10.6023    0.8844    0.9868 N.3       1 UNK    0.0000
     12 C12        10.9867   -0.3597    1.6681 C.3       1 UNK    0.0000
     13 C13         9.8196   -1.3485    1.6158 C.3       1 UNK    0.0000
     14 N14         9.4629   -1.6076    0.2140 N.3       1 UNK    0.0000
     15 C15         8.3945   -2.6114    0.1195 C.3       1 UNK    0.0000
     16 C17         7.1527   -2.1052    0.8562 C.3       1 UNK    0.0000
     17 C18         6.0399   -3.1507    0.7579 C.3       1 UNK    0.0000
     18 C19         5.6966   -3.3933   -0.7133 C.3       1 UNK    0.0000
     19 N21         5.2444   -2.1400   -1.3223 N.am      1 UNK    0.0000
     20 S22         3.6264   -1.7988   -1.4106 S.o2      1 UNK    0.0000
     21 O23         3.0547   -2.9606   -1.9960 O.2       1 UNK    0.0000
     22 O24         3.5688   -0.5418   -2.0708 O.2       1 UNK    0.0000
     23 C25         3.1035   -1.6342    0.3185 C.3       1 UNK    0.0000
     24 C26         1.6306   -1.3195    0.3701 C.ar      1 UNK    0.0000
     25 C27         0.7063   -2.3457    0.4300 C.ar      1 UNK    0.0000
     26 C28        -0.6450   -2.0572    0.4720 C.ar      1 UNK    0.0000
     27 C29        -1.0716   -0.7424    0.4643 C.ar      1 UNK    0.0000
     28 C30        -0.1473    0.2838    0.4049 C.ar      1 UNK    0.0000
     29 C31         1.2038   -0.0048    0.3580 C.ar      1 UNK    0.0000
     30 C32         6.9384   -3.8994   -1.4499 C.3       1 UNK    0.0000
     31 C33         8.0512   -2.8540   -1.3516 C.3       1 UNK    0.0000
     32 C34         9.0785   -0.3635   -0.4672 C.3       1 UNK    0.0000
     33 C35        10.2456    0.6252   -0.4150 C.3       1 UNK    0.0000
@<TRIPOS>BOND
     1    1    2 1
     2    2    3 1
     3    2    4 1
     4    4    5 1
     5    5   10 ar
     6    5    6 ar
     7    6    7 ar
     8    7    8 ar
     9    8    9 ar
    10    9   10 ar
    11   10   11 1
    12   11   33 1
    13   11   12 1
    14   12   13 1
    15   13   14 1
    16   14   15 1
    17   14   32 1
    18   15   31 1
    19   15   16 1
    20   16   17 1
    21   17   18 1
    22   18   19 1
    23   18   30 1
    24   19   20 am
    25   20   21 2
    26   20   22 2
    27   20   23 1
    28   23   24 1
    29   24   29 ar
    30   24   25 ar
    31   25   26 ar
    32   26   27 ar
    33   27   28 ar
    34   28   29 ar
    35   30   31 1
    36   32   33 1
@<TRIPOS>SUBSTRUCTURE
     1 UNK     1 RESIDUE           4 A     UNK     0 ROOT

#	Name: CHEMBL4208185
#	Creating user name:	j2ho
#	Creation time:	10. 04. 2025 18:05
#	Modifying user name:	j2ho
#	Modification time:	10. 04. 2025 18:05
#	Program:	corina 5.0.0 0026  29.08.2023
@<TRIPOS>MOLECULE
CHEMBL4208185
26 28 1 0 0
SMALL
NO_CHARGES


@<TRIPOS>ATOM
      1 O1         -7.8675    2.2634   -6.1036 O.2       1 UNK    0.0000
      2 S2         -7.6692    2.2052   -4.6977 S.o2      1 UNK    0.0000
      3 O3         -8.7357    2.0809   -3.7669 O.2       1 UNK    0.0000
      4 N4         -6.6555    0.9253   -4.4210 N.am      1 UNK    0.0000
      5 C5         -6.2256    0.6132   -3.0557 C.3       1 UNK    0.0000
      6 C6         -6.0945   -0.9038   -2.8947 C.3       1 UNK    0.0000
      7 C7         -5.5885   -1.2205   -1.4856 C.3       1 UNK    0.0000
      8 N8         -4.2872   -0.5736   -1.2746 N.3       1 UNK    0.0000
      9 C9         -3.7062   -0.9681    0.0157 C.3       1 UNK    0.0000
     10 C10        -3.1492   -2.3893   -0.0890 C.3       1 UNK    0.0000
     11 O11        -2.0606   -2.4073   -1.0145 O.3       1 UNK    0.0000
     12 C12        -1.4491   -3.6027   -1.2247 C.ar      1 UNK    0.0000
     13 C13        -1.8878   -4.7351   -0.5540 C.ar      1 UNK    0.0000
     14 C14        -1.2681   -5.9500   -0.7732 C.ar      1 UNK    0.0000
     15 C15        -0.2077   -6.0374   -1.6566 C.ar      1 UNK    0.0000
     16 C16         0.2354   -4.9097   -2.3221 C.ar      1 UNK    0.0000
     17 C17        -0.3812   -3.6916   -2.1064 C.ar      1 UNK    0.0000
     18 I18         0.2907   -1.9829   -3.1153 I         1 UNK    0.0000
     19 C19        -4.3974    0.8871   -1.3775 C.3       1 UNK    0.0000
     20 C20        -4.8679    1.2667   -2.7834 C.3       1 UNK    0.0000
     21 C21        -6.7929    3.6692   -4.2578 C.ar      1 UNK    0.0000
     22 C22        -6.8696    4.1592   -2.9675 C.ar      1 UNK    0.0000
     23 C23        -6.1782    5.3051   -2.6212 C.ar      1 UNK    0.0000
     24 C24        -5.4187    5.9668   -3.5678 C.ar      1 UNK    0.0000
     25 C25        -5.3462    5.4796   -4.8595 C.ar      1 UNK    0.0000
     26 C26        -6.0334    4.3309   -5.2045 C.ar      1 UNK    0.0000
@<TRIPOS>BOND
     1    1    2 2
     2    2    3 2
     3    2    4 am
     4    2   21 1
     5    4    5 1
     6    5   20 1
     7    5    6 1
     8    6    7 1
     9    7    8 1
    10    8    9 1
    11    8   19 1
    12    9   10 1
    13   10   11 1
    14   11   12 1
    15   12   17 ar
    16   12   13 ar
    17   13   14 ar
    18   14   15 ar
    19   15   16 ar
    20   16   17 ar
    21   17   18 1
    22   19   20 1
    23   21   26 ar
    24   21   22 ar
    25   22   23 ar
    26   23   24 ar
    27   24   25 ar
    28   25   26 ar
@<TRIPOS>SUBSTRUCTURE
     1 UNK     1 RESIDUE           4 A     UNK     0 ROOT

#	Name: CHEMBL3695337
#	Creating user name:	j2ho
#	Creation time:	10. 04. 2025 18:11
#	Modifying user name:	j2ho
#	Modification time:	10. 04. 2025 18:11
#	Program:	corina 5.0.0 0026  29.08.2023
@<TRIPOS>MOLECULE
CHEMBL3695337
31 34 1 0 0
SMALL
NO_CHARGES


@<TRIPOS>ATOM
      1 C1          3.0546    5.2151   10.1743 C.3       1 UNK    0.0000
      2 S2          1.6662    4.1402    9.7188 S.o2      1 UNK    0.0000
      3 O3          0.6532    4.8868    9.0587 O.2       1 UNK    0.0000
      4 O4          1.3479    3.2576   10.7860 O.2       1 UNK    0.0000
      5 C5          2.3178    3.0882    8.4644 C.ar      1 UNK    0.0000
      6 C6          2.9097    1.8865    8.8099 C.ar      1 UNK    0.0000
      7 C7          3.4236    1.0562    7.8305 C.ar      1 UNK    0.0000
      8 C8          3.3482    1.4229    6.5018 C.ar      1 UNK    0.0000
      9 C9          2.7528    2.6317    6.1482 C.ar      1 UNK    0.0000
     10 C10         2.6688    3.0313    4.7216 C.ar      1 UNK    0.0000
     11 C11         3.1853    2.1988    3.7308 C.ar      1 UNK    0.0000
     12 C12         3.1041    2.5751    2.4054 C.ar      1 UNK    0.0000
     13 C13         2.5114    3.7763    2.0599 C.ar      1 UNK    0.0000
     14 C14         2.4257    4.1818    0.6110 C.3       1 UNK    0.0000
     15 C15         1.1197    3.6573    0.0110 C.3       1 UNK    0.0000
     16 C17         0.9789    4.1537   -1.3676 C.1       1 UNK    0.0000
     17 N18         0.8702    4.5368   -2.4315 N.1       1 UNK    0.0000
     18 N19         1.1395    2.1925    0.0030 N.am      1 UNK    0.0000
     19 C20        -0.0184    1.5028    0.0103 C.2       1 UNK    0.0000
     20 O21        -1.0768    2.0948    0.0185 O.2       1 UNK    0.0000
     21 C22         0.0021   -0.0041    0.0020 C.3       1 UNK    0.0000
     22 N24        -1.2860   -0.5121    0.4878 N.3       1 UNK    0.0000
     23 C25        -1.9579   -1.3410   -0.5193 C.3       1 UNK    0.0000
     24 C26        -2.2166   -0.5114   -1.7792 C.3       1 UNK    0.0000
     25 C27        -0.8827   -0.0070   -2.3307 C.3       1 UNK    0.0000
     26 C28         0.2492   -0.5019   -1.4244 C.3       1 UNK    0.0000
     27 C29         0.2613   -2.0277   -1.4302 C.3       1 UNK    0.0000
     28 C30        -1.0722   -2.5374   -0.8753 C.3       1 UNK    0.0000
     29 C31         2.0022    4.6091    3.0398 C.ar      1 UNK    0.0000
     30 C32         2.0729    4.2401    4.3679 C.ar      1 UNK    0.0000
     31 C33         2.2414    3.4670    7.1396 C.ar      1 UNK    0.0000
@<TRIPOS>BOND
     1    1    2 1
     2    2    3 2
     3    2    4 2
     4    2    5 1
     5    5   31 ar
     6    5    6 ar
     7    6    7 ar
     8    7    8 ar
     9    8    9 ar
    10    9   10 1
    11    9   31 ar
    12   10   30 ar
    13   10   11 ar
    14   11   12 ar
    15   12   13 ar
    16   13   14 1
    17   13   29 ar
    18   14   15 1
    19   15   16 1
    20   15   18 1
    21   16   17 3
    22   18   19 am
    23   19   20 2
    24   19   21 1
    25   21   26 1
    26   21   22 1
    27   22   23 1
    28   23   28 1
    29   23   24 1
    30   24   25 1
    31   25   26 1
    32   26   27 1
    33   27   28 1
    34   29   30 ar
@<TRIPOS>SUBSTRUCTURE
     1 UNK     1 RESIDUE           4 A     UNK     0 ROOT

#	Name: CHEMBL2086520
#	Creating user name:	j2ho
#	Creation time:	10. 04. 2025 18:13
#	Modifying user name:	j2ho
#	Modification time:	10. 04. 2025 18:13
#	Program:	corina 5.0.0 0026  29.08.2023
@<TRIPOS>MOLECULE
CHEMBL2086520
30 32 1 0 0
SMALL
NO_CHARGES


@<TRIPOS>ATOM
      1 C1         -3.9943    1.2413    8.6301 C.2       1 UNK    0.0000
      2 C2         -3.7115    2.2849    7.8553 C.2       1 UNK    0.0000
      3 C3         -3.2353    2.0723    6.4803 C.2       1 UNK    0.0000
      4 O4         -3.1000    0.9422    6.0515 O.2       1 UNK    0.0000
      5 N5         -2.9488    3.1297    5.6953 N.am      1 UNK    0.0000
      6 C6         -2.6024    2.9320    4.3550 C.ar      1 UNK    0.0000
      7 C7         -1.6909    3.7801    3.7394 C.ar      1 UNK    0.0000
      8 C8         -1.3506    3.5817    2.4157 C.ar      1 UNK    0.0000
      9 C9         -1.9160    2.5399    1.7034 C.ar      1 UNK    0.0000
     10 S10        -1.4786    2.2901    0.0149 S.o2      1 UNK    0.0000
     11 O11        -1.0185    3.5440   -0.4701 O.2       1 UNK    0.0000
     12 O12        -2.5548    1.5753   -0.5768 O.2       1 UNK    0.0000
     13 N13        -0.1726    1.2722   -0.0077 N.am      1 UNK    0.0000
     14 C14         1.1950    1.8091    0.0299 C.3       1 UNK    0.0000
     15 C15         1.9672    1.2683   -1.1798 C.3       1 UNK    0.0000
     16 N16         1.7795   -0.1879   -1.2440 N.am      1 UNK    0.0000
     17 C17         2.8425   -1.0161   -1.2685 C.2       1 UNK    0.0000
     18 O18         2.6752   -2.2161   -1.3219 O.2       1 UNK    0.0000
     19 C19         4.2390   -0.4510   -1.2294 C.3       1 UNK    0.0000
     20 C20         5.2536   -1.5956   -1.2679 C.3       1 UNK    0.0000
     21 C21         6.6501   -1.0305   -1.2288 C.ar      1 UNK    0.0000
     22 C22         7.3054   -0.7251   -2.4071 C.ar      1 UNK    0.0000
     23 C23         8.5845   -0.2023   -2.3710 C.ar      1 UNK    0.0000
     24 C24         9.2124    0.0054   -1.1571 C.ar      1 UNK    0.0000
     25 C25         8.5591   -0.3049    0.0210 C.ar      1 UNK    0.0000
     26 C26         7.2779   -0.8229   -0.0149 C.ar      1 UNK    0.0000
     27 C27         0.4120   -0.7248   -1.2816 C.3       1 UNK    0.0000
     28 C28        -0.3602   -0.1840   -0.0719 C.3       1 UNK    0.0000
     29 C29        -2.8281    1.6972    2.3118 C.ar      1 UNK    0.0000
     30 C30        -3.1688    1.8868    3.6367 C.ar      1 UNK    0.0000
@<TRIPOS>BOND
     1    1    2 2
     2    2    3 1
     3    3    4 2
     4    3    5 am
     5    5    6 1
     6    6   30 ar
     7    6    7 ar
     8    7    8 ar
     9    8    9 ar
    10    9   10 1
    11    9   29 ar
    12   10   11 2
    13   10   12 2
    14   10   13 am
    15   13   28 1
    16   13   14 1
    17   14   15 1
    18   15   16 1
    19   16   17 am
    20   16   27 1
    21   17   18 2
    22   17   19 1
    23   19   20 1
    24   20   21 1
    25   21   26 ar
    26   21   22 ar
    27   22   23 ar
    28   23   24 ar
    29   24   25 ar
    30   25   26 ar
    31   27   28 1
    32   29   30 ar
@<TRIPOS>SUBSTRUCTURE
     1 UNK     1 RESIDUE           4 A     UNK     0 ROOT

#	Name: CHEMBL2435034
#	Creating user name:	j2ho
#	Creation time:	10. 04. 2025 18:11
#	Modifying user name:	j2ho
#	Modification time:	10. 04. 2025 18:11
#	Program:	corina 5.0.0 0026  29.08.2023
@<TRIPOS>MOLECULE
CHEMBL2435034
33 37 1 0 0
SMALL
NO_CHARGES


@<TRIPOS>ATOM
      1 C1         10.0578   -3.5766    1.1276 C.3       1 UNK    0.0000
      2 C2          8.9738   -2.7491    1.7686 C.ar      1 UNK    0.0000
      3 C3          8.8193   -2.7740    3.1432 C.ar      1 UNK    0.0000
      4 C4          7.8201   -2.0108    3.7303 C.ar      1 UNK    0.0000
      5 C5          7.0101   -1.2412    2.9135 C.ar      1 UNK    0.0000
      6 C6          7.2180   -1.2677    1.5344 C.ar      1 UNK    0.0000
      7 C7          6.3581   -0.4558    0.6472 C.2       1 UNK    0.0000
      8 N8          5.3698    0.3213    1.0328 N.2       1 UNK    0.0000
      9 C9          4.8182    0.8988   -0.0391 C.2       1 UNK    0.0000
     10 C10         3.6578    1.8602   -0.0229 C.3       1 UNK    0.0000
     11 N11         2.4006    1.1080   -0.0149 N.pl3     1 UNK    0.0000
     12 C12         1.1804    1.7875    0.0004 C.ar      1 UNK    0.0000
     13 C13        -0.0126    1.0758    0.0080 C.ar      1 UNK    0.0000
     14 C14        -1.2174    1.7508    0.0173 C.ar      1 UNK    0.0000
     15 C15        -1.2370    3.1335    0.0302 C.ar      1 UNK    0.0000
     16 S16        -2.7764    3.9906    0.0489 S.o2      1 UNK    0.0000
     17 N17        -3.2197    4.2365   -1.5276 N.am      1 UNK    0.0000
     18 O18        -3.7297    3.0914    0.5982 O.2       1 UNK    0.0000
     19 O19        -2.5138    5.2751    0.5969 O.2       1 UNK    0.0000
     20 C20        -0.0513    3.8450    0.0222 C.ar      1 UNK    0.0000
     21 C21         1.1570    3.1764    0.0076 C.ar      1 UNK    0.0000
     22 C22         5.4732    0.4705   -1.1391 C.2       1 UNK    0.0000
     23 N23         6.4545   -0.3838   -0.7140 N.pl3     1 UNK    0.0000
     24 C24         7.3796   -1.0604   -1.5221 C.ar      1 UNK    0.0000
     25 C25         8.7334   -1.0110   -1.2183 C.ar      1 UNK    0.0000
     26 C26         9.6454   -1.6826   -2.0094 C.ar      1 UNK    0.0000
     27 C27         9.2132   -2.3962   -3.1159 C.ar      1 UNK    0.0000
     28 C28         7.8561   -2.4429   -3.4265 C.ar      1 UNK    0.0000
     29 C29         6.9423   -1.7749   -2.6288 C.ar      1 UNK    0.0000
     30 O30         7.6913   -3.2015   -4.5493 O.3       1 UNK    0.0000
     31 C31         8.9950   -3.2796   -5.1555 C.3       1 UNK    0.0000
     32 O32         9.8983   -3.1261   -4.0449 O.3       1 UNK    0.0000
     33 N33         8.1863   -2.0125    1.0126 N.ar      1 UNK    0.0000
@<TRIPOS>BOND
     1    1    2 1
     2    2   33 ar
     3    2    3 ar
     4    3    4 ar
     5    4    5 ar
     6    5    6 ar
     7    6    7 1
     8    6   33 ar
     9    7   23 1
    10    7    8 2
    11    8    9 1
    12    9   10 1
    13    9   22 2
    14   10   11 1
    15   11   12 1
    16   12   21 ar
    17   12   13 ar
    18   13   14 ar
    19   14   15 ar
    20   15   16 1
    21   15   20 ar
    22   16   17 am
    23   16   18 2
    24   16   19 2
    25   20   21 ar
    26   22   23 1
    27   23   24 1
    28   24   29 ar
    29   24   25 ar
    30   25   26 ar
    31   26   27 ar
    32   27   32 1
    33   27   28 ar
    34   28   29 ar
    35   28   30 1
    36   30   31 1
    37   31   32 1
@<TRIPOS>SUBSTRUCTURE
     1 UNK     1 RESIDUE           4 A     UNK     0 ROOT

#	Name: CHEMBL1331211
#	Creating user name:	j2ho
#	Creation time:	10. 04. 2025 18:12
#	Modifying user name:	j2ho
#	Modification time:	10. 04. 2025 18:12
#	Program:	corina 5.0.0 0026  29.08.2023
@<TRIPOS>MOLECULE
CHEMBL1331211
27 29 1 0 0
SMALL
NO_CHARGES


@<TRIPOS>ATOM
      1 O1          0.2954    1.8629   -7.1660 O.2       1 UNK    0.0000
      2 C2         -0.3090    2.1438   -6.1581 C.2       1 UNK    0.0000
      3 O3         -1.5997    2.5057   -6.2284 O.3       1 UNK    0.0000
      4 C4          0.3863    2.0878   -4.8223 C.3       1 UNK    0.0000
      5 S5          2.1086    1.5695   -5.0582 S.3       1 UNK    0.0000
      6 C6          2.7487    1.5620   -3.4167 C.ar      1 UNK    0.0000
      7 C7          1.9165    1.9090   -2.3485 C.ar      1 UNK    0.0000
      8 C8          2.3944    1.9159   -1.0578 C.ar      1 UNK    0.0000
      9 N9          1.5531    2.2694   -0.0006 N.am      1 UNK    0.0000
     10 S10        -0.0471    1.8447   -0.0382 S.o2      1 UNK    0.0000
     11 O11        -0.5596    2.3207   -1.2751 O.2       1 UNK    0.0000
     12 O12        -0.5900    2.2144    1.2219 O.2       1 UNK    0.0000
     13 C13        -0.1182    0.0858   -0.1139 C.ar      1 UNK    0.0000
     14 C14        -0.1373   -0.5528   -1.3398 C.ar      1 UNK    0.0000
     15 C15        -0.1883   -1.9328   -1.3997 C.ar      1 UNK    0.0000
     16 C16        -0.2308   -2.6744   -0.2328 C.ar      1 UNK    0.0000
     17 Br17       -0.3085   -4.5620   -0.3141 Br        1 UNK    0.0000
     18 C18        -0.2170   -2.0347    0.9936 C.ar      1 UNK    0.0000
     19 C19        -0.1607   -0.6549    1.0525 C.ar      1 UNK    0.0000
     20 C20         3.7363    1.5587   -0.8063 C.ar      1 UNK    0.0000
     21 C21         4.2522    1.5503    0.4995 C.ar      1 UNK    0.0000
     22 C22         5.5510    1.2001    0.7096 C.ar      1 UNK    0.0000
     23 C23         6.3805    0.8492   -0.3541 C.ar      1 UNK    0.0000
     24 C24         5.9154    0.8459   -1.6330 C.ar      1 UNK    0.0000
     25 C25         4.5793    1.2015   -1.8886 C.ar      1 UNK    0.0000
     26 C26         4.0668    1.2080   -3.1985 C.ar      1 UNK    0.0000
     27 O27         4.8654    0.8668   -4.2467 O.3       1 UNK    0.0000
@<TRIPOS>BOND
     1    1    2 2
     2    2    3 1
     3    2    4 1
     4    4    5 1
     5    5    6 1
     6    6   26 ar
     7    6    7 ar
     8    7    8 ar
     9    8    9 1
    10    8   20 ar
    11    9   10 am
    12   10   11 2
    13   10   12 2
    14   10   13 1
    15   13   19 ar
    16   13   14 ar
    17   14   15 ar
    18   15   16 ar
    19   16   17 1
    20   16   18 ar
    21   18   19 ar
    22   20   25 ar
    23   20   21 ar
    24   21   22 ar
    25   22   23 ar
    26   23   24 ar
    27   24   25 ar
    28   25   26 ar
    29   26   27 1
@<TRIPOS>SUBSTRUCTURE
     1 UNK     1 RESIDUE           4 A     UNK     0 ROOT

#	Name: CHEMBL552033
#	Creating user name:	j2ho
#	Creation time:	10. 04. 2025 18:13
#	Modifying user name:	j2ho
#	Modification time:	10. 04. 2025 18:13
#	Program:	corina 5.0.0 0026  29.08.2023
@<TRIPOS>MOLECULE
CHEMBL552033
29 32 1 0 0
SMALL
NO_CHARGES


@<TRIPOS>ATOM
      1 C1          9.4373    0.3987   -8.2872 C.3       1 UNK    0.0000
      2 C2          8.6583   -0.8891   -8.2110 C.2       1 UNK    0.0000
      3 C3          7.5958   -1.1306   -7.4099 C.2       1 UNK    0.0000
      4 C4          7.1676   -2.4468   -7.6474 C.2       1 UNK    0.0000
      5 N5          6.0931   -3.0885   -7.0189 N.pl3     1 UNK    0.0000
      6 C6          5.3487   -2.4183   -6.0708 C.ar      1 UNK    0.0000
      7 N7          5.6355   -1.1673   -5.7418 N.ar      1 UNK    0.0000
      8 C8          4.9255   -0.5101   -4.8286 C.ar      1 UNK    0.0000
      9 S9          5.3716    1.1514   -4.4477 S.3       1 UNK    0.0000
     10 C10         4.2512    1.4739   -3.1266 C.ar      1 UNK    0.0000
     11 C11         4.5854    1.1106   -1.8283 C.ar      1 UNK    0.0000
     12 C12         3.7076    1.3637   -0.7931 C.ar      1 UNK    0.0000
     13 C13         2.4908    1.9820   -1.0499 C.ar      1 UNK    0.0000
     14 N14         1.6011    2.2385   -0.0005 N.am      1 UNK    0.0000
     15 S15         1.4277    3.7797    0.5800 S.o2      1 UNK    0.0000
     16 C16         3.0573    4.1928    1.2615 C.3       1 UNK    0.0000
     17 O17         0.4685    3.6562    1.6211 O.2       1 UNK    0.0000
     18 O18         1.1579    4.5612   -0.5758 O.2       1 UNK    0.0000
     19 C19         2.1544    2.3405   -2.3488 C.ar      1 UNK    0.0000
     20 C20         3.0341    2.0918   -3.3834 C.ar      1 UNK    0.0000
     21 N21         3.9040   -1.0525   -4.1920 N.ar      1 UNK    0.0000
     22 C22         3.5302   -2.3126   -4.4578 C.ar      1 UNK    0.0000
     23 C23         2.4480   -2.9178   -3.8042 C.ar      1 UNK    0.0000
     24 C24         2.1124   -4.2041   -4.1073 C.ar      1 UNK    0.0000
     25 C25         2.8288   -4.9274   -5.0562 C.ar      1 UNK    0.0000
     26 C26         3.8876   -4.3685   -5.7105 C.ar      1 UNK    0.0000
     27 C27         4.2578   -3.0507   -5.4232 C.ar      1 UNK    0.0000
     28 N28         7.9541   -2.9723   -8.5571 N.2       1 UNK    0.0000
     29 N29         8.8974   -2.0062   -8.9297 N.pl3     1 UNK    0.0000
@<TRIPOS>BOND
     1    1    2 1
     2    2   29 1
     3    2    3 2
     4    3    4 1
     5    4    5 1
     6    4   28 2
     7    5    6 1
     8    6   27 ar
     9    6    7 ar
    10    7    8 ar
    11    8    9 1
    12    8   21 ar
    13    9   10 1
    14   10   20 ar
    15   10   11 ar
    16   11   12 ar
    17   12   13 ar
    18   13   14 1
    19   13   19 ar
    20   14   15 am
    21   15   16 1
    22   15   17 2
    23   15   18 2
    24   19   20 ar
    25   21   22 ar
    26   22   27 ar
    27   22   23 ar
    28   23   24 ar
    29   24   25 ar
    30   25   26 ar
    31   26   27 ar
    32   28   29 1
@<TRIPOS>SUBSTRUCTURE
     1 UNK     1 RESIDUE           4 A     UNK     0 ROOT

#	Name: CHEMBL1277918
#	Creating user name:	j2ho
#	Creation time:	10. 04. 2025 17:59
#	Modifying user name:	j2ho
#	Modification time:	10. 04. 2025 17:59
#	Program:	corina 5.0.0 0026  29.08.2023
@<TRIPOS>MOLECULE
CHEMBL1277918
33 37 1 0 0
SMALL
NO_CHARGES


@<TRIPOS>ATOM
      1 C1          7.1716   -1.4598    6.5071 C.3       1 UNK    0.0000
      2 C2          6.6587   -1.8761    5.1270 C.3       1 UNK    0.0000
      3 C3          6.8888   -3.3756    4.9283 C.3       1 UNK    0.0000
      4 C4          5.1626   -1.5719    5.0259 C.3       1 UNK    0.0000
      5 N5          4.6968   -1.8588    3.6669 N.pl3     1 UNK    0.0000
      6 N6          4.6823   -0.9489    2.6048 N.2       1 UNK    0.0000
      7 C7          4.2053   -1.5181    1.5346 C.2       1 UNK    0.0000
      8 S8          3.9966   -0.7568   -0.0406 S.o2      1 UNK    0.0000
      9 O9          4.1451   -1.7876   -1.0073 O.2       1 UNK    0.0000
     10 O10         4.7963    0.4178   -0.0278 O.2       1 UNK    0.0000
     11 C11         2.3222   -0.2176   -0.1416 C.ar      1 UNK    0.0000
     12 C12         1.4799   -0.7689   -1.0578 C.ar      1 UNK    0.0000
     13 C13         0.1526   -0.3556   -1.1521 C.ar      1 UNK    0.0000
     14 C14        -0.3405    0.6115   -0.3307 C.ar      1 UNK    0.0000
     15 C15         0.4989    1.2039    0.6277 C.ar      1 UNK    0.0000
     16 C16         0.0260    2.2049    1.4936 C.ar      1 UNK    0.0000
     17 C17         0.8682    2.7555    2.4099 C.ar      1 UNK    0.0000
     18 C18         2.1959    2.3421    2.5041 C.ar      1 UNK    0.0000
     19 C19         2.6889    1.3756    1.6826 C.ar      1 UNK    0.0000
     20 C20         1.8492    0.7834    0.7236 C.ar      1 UNK    0.0000
     21 C21         3.8805   -2.9004    1.8713 C.ar      1 UNK    0.0000
     22 C22         3.3526   -3.9772    1.1492 C.ar      1 UNK    0.0000
     23 C23         3.1611   -5.1896    1.7810 C.ar      1 UNK    0.0000
     24 N24         2.6334   -6.2712    1.0667 N.3       1 UNK    0.0000
     25 C25         3.4460   -6.5640   -0.1222 C.3       1 UNK    0.0000
     26 C26         2.7933   -7.6978   -0.9164 C.3       1 UNK    0.0000
     27 N27         2.6715   -8.8856   -0.0596 N.3       1 UNK    0.0000
     28 C28         2.1176  -10.0209   -0.8094 C.3       1 UNK    0.0000
     29 C29         1.8589   -8.5928    1.1293 C.3       1 UNK    0.0000
     30 C30         2.5117   -7.4589    1.9235 C.3       1 UNK    0.0000
     31 C31         3.4908   -5.3418    3.1284 C.ar      1 UNK    0.0000
     32 C32         4.0062   -4.2994    3.8429 C.ar      1 UNK    0.0000
     33 C33         4.2095   -3.0653    3.2299 C.ar      1 UNK    0.0000
@<TRIPOS>BOND
     1    1    2 1
     2    2    3 1
     3    2    4 1
     4    4    5 1
     5    5   33 1
     6    5    6 1
     7    6    7 2
     8    7    8 1
     9    7   21 1
    10    8    9 2
    11    8   10 2
    12    8   11 1
    13   11   20 ar
    14   11   12 ar
    15   12   13 ar
    16   13   14 ar
    17   14   15 ar
    18   15   20 ar
    19   15   16 ar
    20   16   17 ar
    21   17   18 ar
    22   18   19 ar
    23   19   20 ar
    24   21   33 ar
    25   21   22 ar
    26   22   23 ar
    27   23   24 1
    28   23   31 ar
    29   24   30 1
    30   24   25 1
    31   25   26 1
    32   26   27 1
    33   27   28 1
    34   27   29 1
    35   29   30 1
    36   31   32 ar
    37   32   33 ar
@<TRIPOS>SUBSTRUCTURE
     1 UNK     1 RESIDUE           4 A     UNK     0 ROOT

#	Name: CHEMBL3984069
#	Creating user name:	j2ho
#	Creation time:	10. 04. 2025 17:59
#	Modifying user name:	j2ho
#	Modification time:	10. 04. 2025 17:59
#	Program:	corina 5.0.0 0026  29.08.2023
@<TRIPOS>MOLECULE
CHEMBL3984069
31 33 1 0 0
SMALL
NO_CHARGES


@<TRIPOS>ATOM
      1 C1         -8.2950    4.5213   -3.3931 C.3       1 UNK    0.0000
      2 C2         -7.9441    4.2303   -1.9326 C.3       1 UNK    0.0000
      3 C3         -6.5963    4.8232   -1.6120 C.2       1 UNK    0.0000
      4 C4         -6.4367    6.0970   -1.2404 C.2       1 UNK    0.0000
      5 S5         -4.7179    6.3704   -0.9655 S.3       1 UNK    0.0000
      6 C6         -4.3847    4.7448   -1.3776 C.2       1 UNK    0.0000
      7 C7         -3.0123    4.1224   -1.3917 C.3       1 UNK    0.0000
      8 C9         -2.5536    3.8666    0.0453 C.3       1 UNK    0.0000
      9 C10        -1.2370    3.1335    0.0293 C.ar      1 UNK    0.0000
     10 C11        -1.2174    1.7508    0.0173 C.ar      1 UNK    0.0000
     11 C12        -0.0126    1.0758    0.0080 C.ar      1 UNK    0.0000
     12 C13         1.1804    1.7875    0.0004 C.ar      1 UNK    0.0000
     13 N14         2.4006    1.1080   -0.0149 N.am      1 UNK    0.0000
     14 S15         3.6077    1.5967   -1.0379 S.o2      1 UNK    0.0000
     15 O16         4.7136    0.7388   -0.7924 O.2       1 UNK    0.0000
     16 O17         3.0112    1.7485   -2.3187 O.2       1 UNK    0.0000
     17 O18         4.0369    2.9884   -0.5960 O.3       1 UNK    0.0000
     18 C19         1.1570    3.1764    0.0076 C.ar      1 UNK    0.0000
     19 C20        -0.0513    3.8450    0.0222 C.ar      1 UNK    0.0000
     20 N21        -2.0708    5.0311   -2.0505 N.am      1 UNK    0.0000
     21 C22        -1.9490    5.0183   -3.3927 C.2       1 UNK    0.0000
     22 O23        -2.6189    4.2545   -4.0551 O.2       1 UNK    0.0000
     23 C24        -0.9804    5.9530   -4.0704 C.3       1 UNK    0.0000
     24 C25        -1.0366    5.7402   -5.5612 C.ar      1 UNK    0.0000
     25 C26        -0.1983    4.8178   -6.1597 C.ar      1 UNK    0.0000
     26 C27        -0.2527    4.6175   -7.5263 C.ar      1 UNK    0.0000
     27 C28        -1.1374    5.3475   -8.2976 C.ar      1 UNK    0.0000
     28 C29        -1.9732    6.2754   -7.7002 C.ar      1 UNK    0.0000
     29 F30        -2.8386    6.9891   -8.4531 F         1 UNK    0.0000
     30 C31        -1.9218    6.4711   -6.3303 C.ar      1 UNK    0.0000
     31 N32        -5.4778    4.1296   -1.6802 N.2       1 UNK    0.0000
@<TRIPOS>BOND
     1    1    2 1
     2    2    3 1
     3    3   31 1
     4    3    4 2
     5    4    5 1
     6    5    6 1
     7    6    7 1
     8    6   31 2
     9    7    8 1
    10    7   20 1
    11    8    9 1
    12    9   19 ar
    13    9   10 ar
    14   10   11 ar
    15   11   12 ar
    16   12   13 1
    17   12   18 ar
    18   13   14 am
    19   14   15 2
    20   14   16 2
    21   14   17 1
    22   18   19 ar
    23   20   21 am
    24   21   22 2
    25   21   23 1
    26   23   24 1
    27   24   30 ar
    28   24   25 ar
    29   25   26 ar
    30   26   27 ar
    31   27   28 ar
    32   28   29 1
    33   28   30 ar
@<TRIPOS>SUBSTRUCTURE
     1 UNK     1 RESIDUE           4 A     UNK     0 ROOT

#	Name: CHEMBL3113198
#	Creating user name:	j2ho
#	Creation time:	10. 04. 2025 18:07
#	Modifying user name:	j2ho
#	Modification time:	10. 04. 2025 18:07
#	Program:	corina 5.0.0 0026  29.08.2023
@<TRIPOS>MOLECULE
CHEMBL3113198
31 34 1 0 0
SMALL
NO_CHARGES


@<TRIPOS>ATOM
      1 C1          3.5277   -2.0691   -0.0420 C.3       1 UNK    0.0000
      2 O2          3.5850   -0.6413   -0.0353 O.3       1 UNK    0.0000
      3 C3          2.3990    0.0241   -0.0208 C.ar      1 UNK    0.0000
      4 C4          1.2068   -0.6820   -0.0132 C.ar      1 UNK    0.0000
      5 C5          0.0021   -0.0041    0.0020 C.ar      1 UNK    0.0000
      6 C6         -0.0167    1.3783    0.0096 C.ar      1 UNK    0.0000
      7 C7          1.1692    2.0888    0.0021 C.ar      1 UNK    0.0000
      8 C8          1.1449    3.5956    0.0100 C.3       1 UNK    0.0000
      9 N9          1.3641    4.0946   -1.3498 N.pl3     1 UNK    0.0000
     10 C10         1.3839    5.4696   -1.5944 C.ar      1 UNK    0.0000
     11 C11         1.1902    6.3652   -0.5504 C.ar      1 UNK    0.0000
     12 C12         1.2152    7.7242   -0.7949 C.ar      1 UNK    0.0000
     13 C13         1.4222    8.1936   -2.0791 C.ar      1 UNK    0.0000
     14 S14         1.4472    9.9282   -2.3876 S.o2      1 UNK    0.0000
     15 O15         1.7836   10.5502   -1.1551 O.2       1 UNK    0.0000
     16 O16         2.1959   10.1127   -3.5812 O.2       1 UNK    0.0000
     17 N17        -0.1058   10.3868   -2.7342 N.am      1 UNK    0.0000
     18 C18        -1.0862   10.2903   -1.7672 C.2       1 UNK    0.0000
     19 N19        -0.8979    9.8526   -0.5700 N.2       1 UNK    0.0000
     20 C20        -1.9578    9.8215    0.2641 C.ar      1 UNK    0.0000
     21 C21        -2.0110    9.3941    1.6074 C.ar      1 UNK    0.0000
     22 C22        -3.1932    9.4304    2.3029 C.ar      1 UNK    0.0000
     23 C23        -4.3560    9.8872    1.6960 C.ar      1 UNK    0.0000
     24 F24        -5.5142    9.9183    2.3908 F         1 UNK    0.0000
     25 C25        -4.3269   10.3094    0.3835 C.ar      1 UNK    0.0000
     26 C26        -3.1344   10.2791   -0.3356 C.ar      1 UNK    0.0000
     27 S27        -2.7701   10.7400   -1.9967 S.3       1 UNK    0.0000
     28 C28         1.6101    7.3047   -3.1216 C.ar      1 UNK    0.0000
     29 C29         1.5916    5.9445   -2.8832 C.ar      1 UNK    0.0000
     30 C30         2.3801    1.4155   -0.0132 C.ar      1 UNK    0.0000
     31 O31         3.5476    2.1129   -0.0202 O.3       1 UNK    0.0000
@<TRIPOS>BOND
     1    1    2 1
     2    2    3 1
     3    3   30 ar
     4    3    4 ar
     5    4    5 ar
     6    5    6 ar
     7    6    7 ar
     8    7    8 1
     9    7   30 ar
    10    8    9 1
    11    9   10 1
    12   10   29 ar
    13   10   11 ar
    14   11   12 ar
    15   12   13 ar
    16   13   14 1
    17   13   28 ar
    18   14   15 2
    19   14   16 2
    20   14   17 am
    21   17   18 1
    22   18   27 1
    23   18   19 2
    24   19   20 1
    25   20   26 ar
    26   20   21 ar
    27   21   22 ar
    28   22   23 ar
    29   23   24 1
    30   23   25 ar
    31   25   26 ar
    32   26   27 1
    33   28   29 ar
    34   30   31 1
@<TRIPOS>SUBSTRUCTURE
     1 UNK     1 RESIDUE           4 A     UNK     0 ROOT

#	Name: CHEMBL4448427
#	Creating user name:	j2ho
#	Creation time:	10. 04. 2025 18:05
#	Modifying user name:	j2ho
#	Modification time:	10. 04. 2025 18:05
#	Program:	corina 5.0.0 0026  29.08.2023
@<TRIPOS>MOLECULE
CHEMBL4448427
30 32 1 0 0
SMALL
NO_CHARGES


@<TRIPOS>ATOM
      1 C1         -2.1936   -0.3236   -2.3890 C.3       1 UNK    0.0000
      2 S2         -3.2410    0.8193   -1.4471 S.o2      1 UNK    0.0000
      3 O3         -4.4600    0.1893   -1.0777 O.2       1 UNK    0.0000
      4 O4         -3.2344    2.1088   -2.0441 O.2       1 UNK    0.0000
      5 N5         -2.4388    1.0289   -0.0136 N.am      1 UNK    0.0000
      6 C6         -1.1888    1.6519    0.0026 C.ar      1 UNK    0.0000
      7 C7         -1.0945    3.0270   -0.1755 C.ar      1 UNK    0.0000
      8 C8          0.1418    3.6430   -0.1649 C.ar      1 UNK    0.0000
      9 C9          1.2879    2.8954    0.0275 C.ar      1 UNK    0.0000
     10 C10         1.2002    1.5213    0.2110 C.ar      1 UNK    0.0000
     11 N11         2.3613    0.7652    0.4058 N.am      1 UNK    0.0000
     12 C12         3.7242    1.3019    0.3134 C.3       1 UNK    0.0000
     13 C13         4.6432    0.0692    0.1638 C.3       1 UNK    0.0000
     14 C14         3.7963   -1.0384    0.8322 C.3       1 UNK    0.0000
     15 O15         4.1550   -1.1806    2.2081 O.3       1 UNK    0.0000
     16 C16         3.9707   -2.3468    0.1051 C.2       1 UNK    0.0000
     17 O17         4.2970   -2.3526   -1.0630 O.2       1 UNK    0.0000
     18 N18         3.7641   -3.5105    0.7528 N.am      1 UNK    0.0000
     19 C19         3.9336   -4.7825    0.0459 C.3       1 UNK    0.0000
     20 C20         3.6453   -5.9230    0.9878 C.ar      1 UNK    0.0000
     21 C21         4.6671   -6.4748    1.7375 C.ar      1 UNK    0.0000
     22 C22         4.4018   -7.5194    2.6065 C.ar      1 UNK    0.0000
     23 F23         5.3993   -8.0560    3.3429 F         1 UNK    0.0000
     24 C24         3.1147   -8.0180    2.7159 C.ar      1 UNK    0.0000
     25 C25         2.0946   -7.4681    1.9612 C.ar      1 UNK    0.0000
     26 Cl26        0.4804   -8.0920    2.0980 Cl        1 UNK    0.0000
     27 C27         2.3605   -6.4202    1.0973 C.ar      1 UNK    0.0000
     28 C28         2.3717   -0.5447    0.7074 C.2       1 UNK    0.0000
     29 O29         1.3830   -1.2314    0.8552 O.2       1 UNK    0.0000
     30 C30        -0.0401    0.8993    0.2014 C.ar      1 UNK    0.0000
@<TRIPOS>BOND
     1    1    2 1
     2    2    3 2
     3    2    4 2
     4    2    5 am
     5    5    6 1
     6    6   30 ar
     7    6    7 ar
     8    7    8 ar
     9    8    9 ar
    10    9   10 ar
    11   10   11 1
    12   10   30 ar
    13   11   28 am
    14   11   12 1
    15   12   13 1
    16   13   14 1
    17   14   15 1
    18   14   16 1
    19   14   28 1
    20   16   17 2
    21   16   18 am
    22   18   19 1
    23   19   20 1
    24   20   27 ar
    25   20   21 ar
    26   21   22 ar
    27   22   23 1
    28   22   24 ar
    29   24   25 ar
    30   25   26 1
    31   25   27 ar
    32   28   29 2
@<TRIPOS>SUBSTRUCTURE
     1 UNK     1 RESIDUE           4 A     UNK     0 ROOT

#	Name: CHEMBL1705230
#	Creating user name:	j2ho
#	Creation time:	10. 04. 2025 18:02
#	Modifying user name:	j2ho
#	Modification time:	10. 04. 2025 18:02
#	Program:	corina 5.0.0 0026  29.08.2023
@<TRIPOS>MOLECULE
CHEMBL1705230
28 31 1 0 0
SMALL
NO_CHARGES


@<TRIPOS>ATOM
      1 O1          7.8572   -0.1919    1.8948 O.2       1 UNK    0.0000
      2 C2          8.4469    0.3453    0.9779 C.2       1 UNK    0.0000
      3 N3          7.7575    0.8376   -0.0703 N.am      1 UNK    0.0000
      4 C4          6.3583    0.8301   -0.0532 C.ar      1 UNK    0.0000
      5 C5          5.6501    0.6541   -1.2354 C.ar      1 UNK    0.0000
      6 C6          4.2699    0.6465   -1.2188 C.ar      1 UNK    0.0000
      7 C7          3.5888    0.8139   -0.0208 C.ar      1 UNK    0.0000
      8 N8          2.1854    0.8057   -0.0044 N.am      1 UNK    0.0000
      9 C9          1.4518    1.9161   -0.1569 C.2       1 UNK    0.0000
     10 O10         1.8937    3.0328   -0.3226 O.2       1 UNK    0.0000
     11 C11        -0.0173    1.5547   -0.0893 C.3       1 UNK    0.0000
     12 C12         0.0004    0.0326    0.1300 C.3       1 UNK    0.0000
     13 C13        -0.6925   -0.6753   -1.0286 C.3       1 UNK    0.0000
     14 C14        -0.6485   -2.1892   -0.8053 C.3       1 UNK    0.0000
     15 C15        -1.3457   -2.5293    0.5136 C.3       1 UNK    0.0000
     16 C16        -0.6228   -1.8324    1.6681 C.3       1 UNK    0.0000
     17 C17        -0.6665   -0.3170    1.4554 C.3       1 UNK    0.0000
     18 C18         1.4681   -0.3139    0.1646 C.2       1 UNK    0.0000
     19 O19         1.9252   -1.4259    0.3199 O.2       1 UNK    0.0000
     20 C20         4.2962    0.9952    1.1612 C.ar      1 UNK    0.0000
     21 Cl21        3.4444    1.2121    2.6582 Cl        1 UNK    0.0000
     22 C22         5.6776    0.9980    1.1455 C.ar      1 UNK    0.0000
     23 C23         9.9235    0.4590    1.0124 C.ar      1 UNK    0.0000
     24 C24        10.6304   -0.0520    2.0989 C.ar      1 UNK    0.0000
     25 C25        12.0114    0.0619    2.1170 C.ar      1 UNK    0.0000
     26 C26        12.6378    0.6830    1.0475 C.ar      1 UNK    0.0000
     27 C27        11.8716    1.1681   -0.0001 C.ar      1 UNK    0.0000
     28 N28        10.5624    1.0419    0.0056 N.ar      1 UNK    0.0000
@<TRIPOS>BOND
     1    1    2 2
     2    2    3 am
     3    2   23 1
     4    3    4 1
     5    4   22 ar
     6    4    5 ar
     7    5    6 ar
     8    6    7 ar
     9    7    8 1
    10    7   20 ar
    11    8   18 am
    12    8    9 am
    13    9   10 2
    14    9   11 1
    15   11   12 1
    16   12   17 1
    17   12   13 1
    18   12   18 1
    19   13   14 1
    20   14   15 1
    21   15   16 1
    22   16   17 1
    23   18   19 2
    24   20   21 1
    25   20   22 ar
    26   23   28 ar
    27   23   24 ar
    28   24   25 ar
    29   25   26 ar
    30   26   27 ar
    31   27   28 ar
@<TRIPOS>SUBSTRUCTURE
     1 UNK     1 RESIDUE           4 A     UNK     0 ROOT

#	Name: CHEMBL1974870
#	Creating user name:	j2ho
#	Creation time:	10. 04. 2025 17:57
#	Modifying user name:	j2ho
#	Modification time:	10. 04. 2025 17:57
#	Program:	corina 5.0.0 0026  29.08.2023
@<TRIPOS>MOLECULE
CHEMBL1974870
28 31 1 0 0
SMALL
NO_CHARGES


@<TRIPOS>ATOM
      1 C1         -3.1316   -0.0732    0.0167 C.3       1 UNK    0.0000
      2 C2         -2.6282    1.3472    0.0217 C.2       1 UNK    0.0000
      3 N3         -3.3632    2.4221    0.0305 N.2       1 UNK    0.0000
      4 N4         -2.5505    3.5602    0.0444 N.pl3     1 UNK    0.0000
      5 C6         -1.2358    3.1729    0.0299 C.ar      1 UNK    0.0000
      6 C7         -0.0285    3.8696    0.0212 C.ar      1 UNK    0.0000
      7 C8          1.1538    3.1910    0.0072 C.ar      1 UNK    0.0000
      8 C9          1.1744    1.7908    0.0005 C.ar      1 UNK    0.0000
      9 C10         2.4717    1.0704   -0.0153 C.ar      1 UNK    0.0000
     10 C11         2.5073   -0.3228   -0.0168 C.ar      1 UNK    0.0000
     11 N12         3.6562   -0.9664   -0.0352 N.ar      1 UNK    0.0000
     12 C13         4.8114   -0.3304   -0.0432 C.ar      1 UNK    0.0000
     13 C14         4.8627    1.0565   -0.0372 C.ar      1 UNK    0.0000
     14 O15         6.0593    1.7008   -0.0456 O.3       1 UNK    0.0000
     15 C16         7.2341    0.8874   -0.0601 C.3       1 UNK    0.0000
     16 C17         8.4746    1.7830   -0.0678 C.3       1 UNK    0.0000
     17 N18         8.5407    2.5387    1.1902 N.3       1 UNK    0.0000
     18 C19         9.7280    0.9170   -0.2090 C.3       1 UNK    0.0000
     19 C20        10.9392    1.8040   -0.3399 C.ar      1 UNK    0.0000
     20 C21        11.3667    2.2099   -1.5906 C.ar      1 UNK    0.0000
     21 C22        12.4747    3.0274   -1.7112 C.ar      1 UNK    0.0000
     22 C23        13.1624    3.4310   -0.5820 C.ar      1 UNK    0.0000
     23 C24        12.7383    3.0209    0.6692 C.ar      1 UNK    0.0000
     24 Cl25       13.6011    3.5278    2.0878 Cl        1 UNK    0.0000
     25 C26        11.6259    2.2068    0.7897 C.ar      1 UNK    0.0000
     26 C27         3.6755    1.7779   -0.0230 C.ar      1 UNK    0.0000
     27 C28        -0.0126    1.0758    0.0080 C.ar      1 UNK    0.0000
     28 C29        -1.2291    1.7643    0.0174 C.ar      1 UNK    0.0000
@<TRIPOS>BOND
     1    1    2 1
     2    2   28 1
     3    2    3 2
     4    3    4 1
     5    4    5 1
     6    5   28 ar
     7    5    6 ar
     8    6    7 ar
     9    7    8 ar
    10    8    9 1
    11    8   27 ar
    12    9   26 ar
    13    9   10 ar
    14   10   11 ar
    15   11   12 ar
    16   12   13 ar
    17   13   14 1
    18   13   26 ar
    19   14   15 1
    20   15   16 1
    21   16   17 1
    22   16   18 1
    23   18   19 1
    24   19   25 ar
    25   19   20 ar
    26   20   21 ar
    27   21   22 ar
    28   22   23 ar
    29   23   24 1
    30   23   25 ar
    31   27   28 ar
@<TRIPOS>SUBSTRUCTURE
     1 UNK     1 RESIDUE           4 A     UNK     0 ROOT

#	Name: CHEMBL3634441
#	Creating user name:	j2ho
#	Creation time:	10. 04. 2025 18:04
#	Modifying user name:	j2ho
#	Modification time:	10. 04. 2025 18:04
#	Program:	corina 5.0.0 0026  29.08.2023
@<TRIPOS>MOLECULE
CHEMBL3634441
30 34 1 0 0
SMALL
NO_CHARGES


@<TRIPOS>ATOM
      1 C1         12.5908   -1.2768   -3.2692 C.3       1 UNK    0.0000
      2 C2         13.0673   -0.5322   -2.0487 C.2       1 UNK    0.0000
      3 C3         14.3993   -0.3506   -1.6450 C.2       1 UNK    0.0000
      4 C4         14.3739    0.3723   -0.5035 C.2       1 UNK    0.0000
      5 O5         13.0995    0.6450   -0.1944 O.3       1 UNK    0.0000
      6 C6         12.2867    0.0970   -1.1214 C.2       1 UNK    0.0000
      7 C7         10.8224    0.1697   -1.1343 C.2       1 UNK    0.0000
      8 O8         10.1946   -0.3625   -2.0311 O.2       1 UNK    0.0000
      9 N9         10.1715    0.8257   -0.1533 N.am      1 UNK    0.0000
     10 C10         8.7752    0.8148   -0.1129 C.ar      1 UNK    0.0000
     11 C11         8.0485    0.8159   -1.2840 C.ar      1 UNK    0.0000
     12 C12         6.6579    0.7989   -1.2601 C.ar      1 UNK    0.0000
     13 C13         5.9719    0.7922   -0.0656 C.ar      1 UNK    0.0000
     14 N14         4.5712    0.7811   -0.0589 N.am      1 UNK    0.0000
     15 C15         3.8014    1.8842   -0.0480 C.2       1 UNK    0.0000
     16 O16         4.2044    3.0299   -0.0434 O.2       1 UNK    0.0000
     17 C17         2.3829    1.4686   -0.0430 C.ar      1 UNK    0.0000
     18 C18         1.1754    2.1481   -0.0319 C.ar      1 UNK    0.0000
     19 C19        -0.0139    1.4359   -0.0297 C.ar      1 UNK    0.0000
     20 C20        -0.0030    0.0537   -0.0383 C.ar      1 UNK    0.0000
     21 C21         1.1974   -0.6396   -0.0493 C.ar      1 UNK    0.0000
     22 C22         2.3940    0.0589   -0.0518 C.ar      1 UNK    0.0000
     23 C23         3.8189   -0.3341   -0.0618 C.2       1 UNK    0.0000
     24 O24         4.2399   -1.4732   -0.0714 O.2       1 UNK    0.0000
     25 C25         6.6859    0.7907    1.1506 C.ar      1 UNK    0.0000
     26 C26         6.0179    0.7777    2.3858 C.ar      1 UNK    0.0000
     27 C27         6.7376    0.7761    3.5415 C.ar      1 UNK    0.0000
     28 C28         8.1308    0.7873    3.5181 C.ar      1 UNK    0.0000
     29 C29         8.8112    0.8001    2.3389 C.ar      1 UNK    0.0000
     30 C30         8.1020    0.8021    1.1270 C.ar      1 UNK    0.0000
@<TRIPOS>BOND
     1    1    2 1
     2    2    6 2
     3    2    3 1
     4    3    4 2
     5    4    5 1
     6    5    6 1
     7    6    7 1
     8    7    8 2
     9    7    9 am
    10    9   10 1
    11   10   30 ar
    12   10   11 ar
    13   11   12 ar
    14   12   13 ar
    15   13   14 1
    16   13   25 ar
    17   14   23 am
    18   14   15 am
    19   15   16 2
    20   15   17 1
    21   17   22 ar
    22   17   18 ar
    23   18   19 ar
    24   19   20 ar
    25   20   21 ar
    26   21   22 ar
    27   22   23 1
    28   23   24 2
    29   25   30 ar
    30   25   26 ar
    31   26   27 ar
    32   27   28 ar
    33   28   29 ar
    34   29   30 ar
@<TRIPOS>SUBSTRUCTURE
     1 UNK     1 RESIDUE           4 A     UNK     0 ROOT

#	Name: CHEMBL409731
#	Creating user name:	j2ho
#	Creation time:	10. 04. 2025 17:56
#	Modifying user name:	j2ho
#	Modification time:	10. 04. 2025 17:56
#	Program:	corina 5.0.0 0026  29.08.2023
@<TRIPOS>MOLECULE
CHEMBL409731
26 28 1 0 0
SMALL
NO_CHARGES


@<TRIPOS>ATOM
      1 C1          1.1217   -2.1127   -0.0200 C.3       1 UNK    0.0000
      2 O2          1.1780   -0.6618   -0.0127 O.3       1 UNK    0.0000
      3 C3          0.0021   -0.0041    0.0020 C.2       1 UNK    0.0000
      4 O4         -1.0418   -0.6258    0.0086 O.2       1 UNK    0.0000
      5 C5         -0.0179    1.4707    0.0101 C.ar      1 UNK    0.0000
      6 C6          1.1831    2.1895    0.0025 C.ar      1 UNK    0.0000
      7 C7          1.1729    3.5643    0.0100 C.ar      1 UNK    0.0000
      8 C8         -0.0357    4.2591    0.0249 C.ar      1 UNK    0.0000
      9 C9         -1.2411    3.5406    0.0326 C.ar      1 UNK    0.0000
     10 C10        -1.2347    2.1547    0.0196 C.ar      1 UNK    0.0000
     11 C11        -2.3266    4.5501    0.0487 C.2       1 UNK    0.0000
     12 C12        -3.6724    4.3233    0.0598 C.2       1 UNK    0.0000
     13 N13        -4.5397    5.3730    0.0737 N.pl3     1 UNK    0.0000
     14 C14        -5.9176    5.1408    0.0851 C.ar      1 UNK    0.0000
     15 C15        -6.4045    3.8397    0.0764 C.ar      1 UNK    0.0000
     16 C16        -7.7668    3.6138    0.0930 C.ar      1 UNK    0.0000
     17 C17        -8.6461    4.6810    0.1072 C.ar      1 UNK    0.0000
     18 S18       -10.3836    4.3883    0.1216 S.o2      1 UNK    0.0000
     19 N19       -10.8816    4.3164   -1.4561 N.am      1 UNK    0.0000
     20 O20       -10.5666    3.0860    0.6598 O.2       1 UNK    0.0000
     21 O21       -10.9818    5.5506    0.6786 O.2       1 UNK    0.0000
     22 C22        -8.1649    5.9775    0.1106 C.ar      1 UNK    0.0000
     23 C23        -6.8038    6.2106    0.0993 C.ar      1 UNK    0.0000
     24 C24        -1.6389    5.8461    0.0492 C.2       1 UNK    0.0000
     25 O25        -2.1745    6.9404    0.0599 O.2       1 UNK    0.0000
     26 N26        -0.3154    5.6155    0.0352 N.am      1 UNK    0.0000
@<TRIPOS>BOND
     1    1    2 1
     2    2    3 1
     3    3    4 2
     4    3    5 1
     5    5   10 ar
     6    5    6 ar
     7    6    7 ar
     8    7    8 ar
     9    8   26 1
    10    8    9 ar
    11    9   10 ar
    12    9   11 1
    13   11   12 2
    14   11   24 1
    15   12   13 1
    16   13   14 1
    17   14   23 ar
    18   14   15 ar
    19   15   16 ar
    20   16   17 ar
    21   17   18 1
    22   17   22 ar
    23   18   19 am
    24   18   20 2
    25   18   21 2
    26   22   23 ar
    27   24   25 2
    28   24   26 am
@<TRIPOS>SUBSTRUCTURE
     1 UNK     1 RESIDUE           4 A     UNK     0 ROOT

#	Name: CHEMBL3977299
#	Creating user name:	j2ho
#	Creation time:	10. 04. 2025 18:07
#	Modifying user name:	j2ho
#	Modification time:	10. 04. 2025 18:07
#	Program:	corina 5.0.0 0026  29.08.2023
@<TRIPOS>MOLECULE
CHEMBL3977299
34 37 1 0 0
SMALL
NO_CHARGES


@<TRIPOS>ATOM
      1 O1         -1.2197    3.7663   -5.5054 O.2       1 UNK    0.0000
      2 C2         -0.7822    4.6537   -4.8039 C.2       1 UNK    0.0000
      3 C3         -0.3035    5.9398   -5.4267 C.3       1 UNK    0.0000
      4 N4         -0.4703    5.8701   -6.8805 N.am      1 UNK    0.0000
      5 C5         -0.1068    6.9142   -7.6514 C.2       1 UNK    0.0000
      6 O6          0.3593    7.9133   -7.1406 O.2       1 UNK    0.0000
      7 O7         -0.2602    6.8501   -8.9875 O.3       1 UNK    0.0000
      8 C8          0.1527    8.0115   -9.7548 C.3       1 UNK    0.0000
      9 C9         -0.0919    7.7584  -11.2201 C.ar      1 UNK    0.0000
     10 C10         0.8982    7.1874  -11.9976 C.ar      1 UNK    0.0000
     11 C11         0.6721    6.9508  -13.3407 C.ar      1 UNK    0.0000
     12 C12        -0.5404    7.2947  -13.9085 C.ar      1 UNK    0.0000
     13 C13        -1.5287    7.8705  -13.1321 C.ar      1 UNK    0.0000
     14 C14        -1.3044    8.1023  -11.7880 C.ar      1 UNK    0.0000
     15 N15        -0.7241    4.4897   -3.4674 N.am      1 UNK    0.0000
     16 C16        -1.0773    3.2617   -2.8973 C.ar      1 UNK    0.0000
     17 C17        -2.1001    2.5045   -3.4537 C.ar      1 UNK    0.0000
     18 C18        -2.4465    1.2932   -2.8883 C.ar      1 UNK    0.0000
     19 C19        -1.7723    0.8311   -1.7727 C.ar      1 UNK    0.0000
     20 C20        -0.7574    1.5850   -1.2131 C.ar      1 UNK    0.0000
     21 C21        -0.0296    1.0806    0.0063 C.3       1 UNK    0.0000
     22 C22        -0.7396    1.5789    1.2666 C.3       1 UNK    0.0000
     23 C23        -0.0118    1.0745    2.4859 C.2       1 UNK    0.0000
     24 N24         1.0472    0.3290    2.3437 N.2       1 UNK    0.0000
     25 N25         1.7089   -0.1243    3.3462 N.am      1 UNK    0.0000
     26 C27         1.3338    0.1350    4.6124 C.2       1 UNK    0.0000
     27 O28         1.9756   -0.3124    5.5494 O.2       1 UNK    0.0000
     28 C29         0.1874    0.9312    4.8468 C.2       1 UNK    0.0000
     29 C30        -0.4857    1.4082    3.7705 C.2       1 UNK    0.0000
     30 C31        -1.7046    2.2795    3.8906 C.3       1 UNK    0.0000
     31 C32        -2.3018    2.1734    5.2936 C.3       1 UNK    0.0000
     32 C33        -1.1824    2.4022    6.3162 C.3       1 UNK    0.0000
     33 C34        -0.2285    1.2090    6.2634 C.3       1 UNK    0.0000
     34 C35        -0.4061    2.7976   -1.7738 C.ar      1 UNK    0.0000
@<TRIPOS>BOND
     1    1    2 2
     2    2    3 1
     3    2   15 am
     4    3    4 1
     5    4    5 am
     6    5    6 2
     7    5    7 1
     8    7    8 1
     9    8    9 1
    10    9   14 ar
    11    9   10 ar
    12   10   11 ar
    13   11   12 ar
    14   12   13 ar
    15   13   14 ar
    16   15   16 1
    17   16   34 ar
    18   16   17 ar
    19   17   18 ar
    20   18   19 ar
    21   19   20 ar
    22   20   21 1
    23   20   34 ar
    24   21   22 1
    25   22   23 1
    26   23   29 1
    27   23   24 2
    28   24   25 1
    29   25   26 am
    30   26   27 2
    31   26   28 1
    32   28   33 1
    33   28   29 2
    34   29   30 1
    35   30   31 1
    36   31   32 1
    37   32   33 1
@<TRIPOS>SUBSTRUCTURE
     1 UNK     1 RESIDUE           4 A     UNK     0 ROOT

#	Name: CHEMBL4439067
#	Creating user name:	j2ho
#	Creation time:	10. 04. 2025 18:12
#	Modifying user name:	j2ho
#	Modification time:	10. 04. 2025 18:12
#	Program:	corina 5.0.0 0026  29.08.2023
@<TRIPOS>MOLECULE
CHEMBL4439067
29 33 1 0 0
SMALL
NO_CHARGES


@<TRIPOS>ATOM
      1 N1         -0.5968    4.1432   -4.7974 N.3       1 UNK    0.0000
      2 C2         -0.0155    3.7101   -6.0751 C.3       1 UNK    0.0000
      3 C3         -0.1055    2.1868   -6.1860 C.3       1 UNK    0.0000
      4 C4          0.7081    1.4127   -5.1810 C.ar      1 UNK    0.0000
      5 C5          0.0705    0.6396   -4.2273 C.ar      1 UNK    0.0000
      6 C6          0.8101   -0.0715   -3.3045 C.ar      1 UNK    0.0000
      7 C7          2.2029   -0.0092   -3.3344 C.ar      1 UNK    0.0000
      8 C8          3.0027   -0.7697   -2.3462 C.ar      1 UNK    0.0000
      9 C9          3.3384   -0.1930   -1.1210 C.ar      1 UNK    0.0000
     10 O10         2.9317    1.0708   -0.8301 O.3       1 UNK    0.0000
     11 C11         4.0829   -0.9127   -0.1972 C.ar      1 UNK    0.0000
     12 C12         4.5025   -2.1970   -0.4793 C.ar      1 UNK    0.0000
     13 Cl13        5.4329   -3.0772    0.6926 Cl        1 UNK    0.0000
     14 C14         4.1840   -2.7918   -1.6980 C.ar      1 UNK    0.0000
     15 N15         4.6112   -4.0838   -1.9688 N.am      1 UNK    0.0000
     16 C17         4.3315   -4.7037   -3.1291 C.2       1 UNK    0.0000
     17 O18         4.7289   -5.8384   -3.3196 O.2       1 UNK    0.0000
     18 C19         3.5501   -4.0215   -4.1666 C.ar      1 UNK    0.0000
     19 C20         3.2463   -4.6447   -5.3824 C.ar      1 UNK    0.0000
     20 O21         3.6742   -5.9085   -5.6282 O.3       1 UNK    0.0000
     21 C22         2.5056   -3.9611   -6.3333 C.ar      1 UNK    0.0000
     22 C23         2.0658   -2.6710   -6.0899 C.ar      1 UNK    0.0000
     23 C24         2.3560   -2.0410   -4.8959 C.ar      1 UNK    0.0000
     24 C25         3.0980   -2.7063   -3.9265 C.ar      1 UNK    0.0000
     25 C26         3.4327   -2.0743   -2.6383 C.ar      1 UNK    0.0000
     26 C27         2.8397    0.7765   -4.2946 C.ar      1 UNK    0.0000
     27 C28         2.0895    1.4784   -5.2157 C.ar      1 UNK    0.0000
     28 C29        -1.4441    1.5881   -6.6228 C.3       1 UNK    0.0000
     29 C30        -0.2545    1.5880   -7.5860 C.3       1 UNK    0.0000
@<TRIPOS>BOND
     1    1    2 1
     2    2    3 1
     3    3   29 1
     4    3    4 1
     5    3   28 1
     6    4   27 ar
     7    4    5 ar
     8    5    6 ar
     9    6    7 ar
    10    7    8 1
    11    7   26 ar
    12    8   25 ar
    13    8    9 ar
    14    9   10 1
    15    9   11 ar
    16   11   12 ar
    17   12   13 1
    18   12   14 ar
    19   14   25 ar
    20   14   15 1
    21   15   16 am
    22   16   17 2
    23   16   18 1
    24   18   24 ar
    25   18   19 ar
    26   19   20 1
    27   19   21 ar
    28   21   22 ar
    29   22   23 ar
    30   23   24 ar
    31   24   25 1
    32   26   27 ar
    33   28   29 1
@<TRIPOS>SUBSTRUCTURE
     1 UNK     1 RESIDUE           4 A     UNK     0 ROOT

#	Name: CHEMBL3715768
#	Creating user name:	j2ho
#	Creation time:	10. 04. 2025 18:01
#	Modifying user name:	j2ho
#	Modification time:	10. 04. 2025 18:01
#	Program:	corina 5.0.0 0026  29.08.2023
@<TRIPOS>MOLECULE
CHEMBL3715768
31 34 1 0 0
SMALL
NO_CHARGES


@<TRIPOS>ATOM
      1 C1         -6.3580    1.4324   -0.1675 C.3       1 UNK    0.0000
      2 C2         -4.8650    1.2310   -0.1282 C.2       1 UNK    0.0000
      3 N3         -4.2437    0.0856   -0.0836 N.2       1 UNK    0.0000
      4 N4         -2.9730    0.2862   -0.0600 N.2       1 UNK    0.0000
      5 C5         -2.7383    1.5771   -0.0889 C.2       1 UNK    0.0000
      6 C6         -1.4106    2.2275   -0.0755 C.ar      1 UNK    0.0000
      7 C7         -1.3116    3.6194   -0.1058 C.ar      1 UNK    0.0000
      8 C8         -0.0698    4.2198   -0.0983 C.ar      1 UNK    0.0000
      9 C9          1.0762    3.4454   -0.0565 C.ar      1 UNK    0.0000
     10 C10         0.9850    2.0656   -0.0220 C.ar      1 UNK    0.0000
     11 S11         2.4505    1.0887    0.0299 S.o2      1 UNK    0.0000
     12 O12         3.4678    1.9199    0.5716 O.2       1 UNK    0.0000
     13 O13         2.0809   -0.1593    0.6003 O.2       1 UNK    0.0000
     14 N14         2.8869    0.7760   -1.5366 N.am      1 UNK    0.0000
     15 C15         3.1807    1.8244   -2.3978 C.ar      1 UNK    0.0000
     16 C16         3.8209    2.9616   -1.9208 C.ar      1 UNK    0.0000
     17 C17         4.1163    4.0004   -2.7791 C.ar      1 UNK    0.0000
     18 C18         3.7686    3.9247   -4.1205 C.ar      1 UNK    0.0000
     19 Cl19        4.1416    5.2444   -5.1850 Cl        1 UNK    0.0000
     20 C20         3.1286    2.8080   -4.6118 C.ar      1 UNK    0.0000
     21 C21         2.8269    1.7437   -3.7553 C.ar      1 UNK    0.0000
     22 C22         2.1435    0.5467   -4.2731 C.2       1 UNK    0.0000
     23 O23         0.9522    0.5828   -4.5129 O.2       1 UNK    0.0000
     24 C24         2.9073   -0.7015   -4.5016 C.ar      1 UNK    0.0000
     25 C25         4.2973   -0.7322   -4.3473 C.ar      1 UNK    0.0000
     26 C26         4.9690   -1.9193   -4.5651 C.ar      1 UNK    0.0000
     27 N27         4.3194   -3.0087   -4.9241 N.ar      1 UNK    0.0000
     28 C28         3.0112   -3.0221   -5.0860 C.ar      1 UNK    0.0000
     29 C29         2.2597   -1.8810   -4.8835 C.ar      1 UNK    0.0000
     30 C30        -0.2512    1.4525   -0.0285 C.ar      1 UNK    0.0000
     31 O31        -3.9333    2.1997   -0.1272 O.3       1 UNK    0.0000
@<TRIPOS>BOND
     1    1    2 1
     2    2   31 1
     3    2    3 2
     4    3    4 1
     5    4    5 2
     6    5    6 1
     7    5   31 1
     8    6   30 ar
     9    6    7 ar
    10    7    8 ar
    11    8    9 ar
    12    9   10 ar
    13   10   11 1
    14   10   30 ar
    15   11   12 2
    16   11   13 2
    17   11   14 am
    18   14   15 1
    19   15   21 ar
    20   15   16 ar
    21   16   17 ar
    22   17   18 ar
    23   18   19 1
    24   18   20 ar
    25   20   21 ar
    26   21   22 1
    27   22   23 2
    28   22   24 1
    29   24   29 ar
    30   24   25 ar
    31   25   26 ar
    32   26   27 ar
    33   27   28 ar
    34   28   29 ar
@<TRIPOS>SUBSTRUCTURE
     1 UNK     1 RESIDUE           4 A     UNK     0 ROOT

#	Name: CHEMBL2336626
#	Creating user name:	j2ho
#	Creation time:	10. 04. 2025 18:16
#	Modifying user name:	j2ho
#	Modification time:	10. 04. 2025 18:16
#	Program:	corina 5.0.0 0026  29.08.2023
@<TRIPOS>MOLECULE
CHEMBL2336626
27 30 1 0 0
SMALL
NO_CHARGES


@<TRIPOS>ATOM
      1 N1          8.6428    3.2681    1.3088 N.am      1 UNK    0.0000
      2 S2          7.9299    2.6614   -0.0573 S.o2      1 UNK    0.0000
      3 O3          7.9193    1.2480    0.0895 O.2       1 UNK    0.0000
      4 O4          8.5400    3.3241   -1.1563 O.2       1 UNK    0.0000
      5 C5          6.2449    3.1762   -0.0389 C.ar      1 UNK    0.0000
      6 C6          5.8827    4.3732   -0.6291 C.ar      1 UNK    0.0000
      7 C7          4.5628    4.7795   -0.6163 C.ar      1 UNK    0.0000
      8 C8          3.5989    3.9844   -0.0105 C.ar      1 UNK    0.0000
      9 N9          2.2593    4.3937    0.0041 N.pl3     1 UNK    0.0000
     10 N10         1.7907    5.6776    0.3108 N.2       1 UNK    0.0000
     11 C11         0.4844    5.6767    0.2192 C.2       1 UNK    0.0000
     12 C12        -0.4149    6.8599    0.4686 C.3       1 UNK    0.0000
     13 O13        -1.7764    6.4735    0.2709 O.3       1 UNK    0.0000
     14 C14         0.0642    4.3997   -0.1535 C.2       1 UNK    0.0000
     15 C15         1.1749    3.6126   -0.2782 C.2       1 UNK    0.0000
     16 C16         1.1984    2.1829   -0.6550 C.ar      1 UNK    0.0000
     17 C17         2.3386    1.6442   -1.2770 C.ar      1 UNK    0.0000
     18 C18         2.3843    0.3351   -1.6328 C.ar      1 UNK    0.0000
     19 C19         1.2823   -0.5020   -1.3794 C.ar      1 UNK    0.0000
     20 C20         1.3063   -1.8602   -1.7379 C.ar      1 UNK    0.0000
     21 C21         0.2245   -2.6454   -1.4804 C.ar      1 UNK    0.0000
     22 C22        -0.9114   -2.1231   -0.8646 C.ar      1 UNK    0.0000
     23 C23        -0.9714   -0.8126   -0.5025 C.ar      1 UNK    0.0000
     24 C24         0.1269    0.0295   -0.7524 C.ar      1 UNK    0.0000
     25 C25         0.0981    1.3854   -0.3922 C.ar      1 UNK    0.0000
     26 C26         3.9666    2.7855    0.5859 C.ar      1 UNK    0.0000
     27 C27         5.2874    2.3822    0.5652 C.ar      1 UNK    0.0000
@<TRIPOS>BOND
     1    1    2 am
     2    2    3 2
     3    2    4 2
     4    2    5 1
     5    5   27 ar
     6    5    6 ar
     7    6    7 ar
     8    7    8 ar
     9    8    9 1
    10    8   26 ar
    11    9   15 1
    12    9   10 1
    13   10   11 2
    14   11   12 1
    15   11   14 1
    16   12   13 1
    17   14   15 2
    18   15   16 1
    19   16   25 ar
    20   16   17 ar
    21   17   18 ar
    22   18   19 ar
    23   19   24 ar
    24   19   20 ar
    25   20   21 ar
    26   21   22 ar
    27   22   23 ar
    28   23   24 ar
    29   24   25 ar
    30   26   27 ar
@<TRIPOS>SUBSTRUCTURE
     1 UNK     1 RESIDUE           4 A     UNK     0 ROOT

