#	Name: CHEMBL3715382
#	Creating user name:	j2ho
#	Creation time:	10. 04. 2025 18:11
#	Modifying user name:	j2ho
#	Modification time:	10. 04. 2025 18:11
#	Program:	corina 5.0.0 0026  29.08.2023
@<TRIPOS>MOLECULE
CHEMBL3715382
31 34 1 0 0
SMALL
NO_CHARGES


@<TRIPOS>ATOM
      1 C1         -1.6501    9.8521   -0.8042 C.3       1 UNK    0.0000
      2 C2         -0.4828    9.0812   -0.1846 C.3       1 UNK    0.0000
      3 C4          0.0312    8.0426   -1.1843 C.3       1 UNK    0.0000
      4 N5          1.1264    7.2774   -0.5722 N.3       1 UNK    0.0000
      5 C6          1.6980    6.3197   -1.5283 C.3       1 UNK    0.0000
      6 C7          3.0366    5.8450   -1.0244 C.2       1 UNK    0.0000
      7 N8          3.2822    4.7557   -0.3351 N.2       1 UNK    0.0000
      8 N9          4.5413    4.6945   -0.0844 N.pl3     1 UNK    0.0000
      9 N11         5.1617    5.7035   -0.5850 N.2       1 UNK    0.0000
     10 C12         4.2822    6.4766   -1.1988 C.2       1 UNK    0.0000
     11 C13         4.5511    7.7472   -1.9157 C.ar      1 UNK    0.0000
     12 C14         5.4274    8.6841   -1.3683 C.ar      1 UNK    0.0000
     13 C15         5.6779    9.8636   -2.0323 C.ar      1 UNK    0.0000
     14 C16         5.0491   10.1246   -3.2529 C.ar      1 UNK    0.0000
     15 C17         5.3037   11.3539   -3.9419 C.1       1 UNK    0.0000
     16 N18         5.5057   12.3291   -4.4885 N.1       1 UNK    0.0000
     17 C19         4.1757    9.1823   -3.8031 C.ar      1 UNK    0.0000
     18 C20         3.9276    8.0035   -3.1368 C.ar      1 UNK    0.0000
     19 C21         0.6714    6.5960    0.6477 C.3       1 UNK    0.0000
     20 C22         0.1573    7.6346    1.6474 C.3       1 UNK    0.0000
     21 N23        -0.9379    8.3998    1.0353 N.3       1 UNK    0.0000
     22 C24        -1.4787    9.3060    1.9400 C.ar      1 UNK    0.0000
     23 C25        -2.5862    8.9438    2.7003 C.ar      1 UNK    0.0000
     24 C26        -3.1109    9.8535    3.6002 C.ar      1 UNK    0.0000
     25 C27        -2.5148   11.1037    3.7024 C.ar      1 UNK    0.0000
     26 C28        -3.0562   12.1286    4.6656 C.3       1 UNK    0.0000
     27 F29        -2.2903   13.2963    4.5832 F         1 UNK    0.0000
     28 F30        -4.3854   12.4187    4.3393 F         1 UNK    0.0000
     29 F31        -2.9957   11.6220    5.9682 F         1 UNK    0.0000
     30 C32        -1.4212   11.3979    2.9134 C.ar      1 UNK    0.0000
     31 N33        -0.9386   10.5082    2.0666 N.ar      1 UNK    0.0000
@<TRIPOS>BOND
     1    1    2 1
     2    2   21 1
     3    2    3 1
     4    3    4 1
     5    4    5 1
     6    4   19 1
     7    5    6 1
     8    6   10 1
     9    6    7 2
    10    7    8 1
    11    8    9 1
    12    9   10 2
    13   10   11 1
    14   11   18 ar
    15   11   12 ar
    16   12   13 ar
    17   13   14 ar
    18   14   15 1
    19   14   17 ar
    20   15   16 3
    21   17   18 ar
    22   19   20 1
    23   20   21 1
    24   21   22 1
    25   22   31 ar
    26   22   23 ar
    27   23   24 ar
    28   24   25 ar
    29   25   26 1
    30   25   30 ar
    31   26   27 1
    32   26   28 1
    33   26   29 1
    34   30   31 ar
@<TRIPOS>SUBSTRUCTURE
     1 UNK     1 RESIDUE           4 A     UNK     0 ROOT

#	Name: CHEMBL545747
#	Creating user name:	j2ho
#	Creation time:	10. 04. 2025 18:08
#	Modifying user name:	j2ho
#	Modification time:	10. 04. 2025 18:08
#	Program:	corina 5.0.0 0026  29.08.2023
@<TRIPOS>MOLECULE
CHEMBL545747
29 30 1 0 0
SMALL
NO_CHARGES


@<TRIPOS>ATOM
      1 Cl1        -0.0165    1.3658    0.0096 Cl        1 UNK    0.0000
      2 O2         15.1466    8.4511   12.3113 O.2       1 UNK    0.0000
      3 C3         14.6092    7.6918   11.5403 C.2       1 UNK    0.0000
      4 O4         14.7287    6.3658   11.7111 O.3       1 UNK    0.0000
      5 C5         13.8048    8.2335   10.3868 C.3       1 UNK    0.0000
      6 C7         14.4091    7.7441    9.0677 C.3       1 UNK    0.0000
      7 C8         13.6241    8.3471    7.8995 C.3       1 UNK    0.0000
      8 C9         13.6570    9.8736    8.0031 C.3       1 UNK    0.0000
      9 N10        13.0661   10.2916    9.2808 N.3       1 UNK    0.0000
     10 C11        12.9544   11.7544    9.3557 C.3       1 UNK    0.0000
     11 C12        11.9479   12.2431    8.3121 C.3       1 UNK    0.0000
     12 O13        10.6473   11.7475    8.6360 O.3       1 UNK    0.0000
     13 N14         9.6190   12.2343    7.7930 N.2       1 UNK    0.0000
     14 C15         8.3763   11.9358    8.0427 C.2       1 UNK    0.0000
     15 C16         8.0275   11.1836    9.2702 C.ar      1 UNK    0.0000
     16 C17         8.2212   11.7619   10.5246 C.ar      1 UNK    0.0000
     17 C18         7.8900   11.0584   11.6642 C.ar      1 UNK    0.0000
     18 C19         7.3768    9.7770   11.5657 C.ar      1 UNK    0.0000
     19 C20         7.1865    9.1954   10.3257 C.ar      1 UNK    0.0000
     20 C21         7.5092    9.8913    9.1767 C.ar      1 UNK    0.0000
     21 Cl22        7.2700    9.1602    7.6205 Cl        1 UNK    0.0000
     22 C23         7.3115   12.3483    7.0992 C.ar      1 UNK    0.0000
     23 C24         5.9710   12.1319    7.4179 C.ar      1 UNK    0.0000
     24 C25         4.9835   12.5226    6.5374 C.ar      1 UNK    0.0000
     25 C26         5.3203   13.1183    5.3345 C.ar      1 UNK    0.0000
     26 C27         6.6474   13.3316    5.0096 C.ar      1 UNK    0.0000
     27 C28         7.6455   12.9498    5.8850 C.ar      1 UNK    0.0000
     28 Cl29        9.3112   13.2181    5.4761 Cl        1 UNK    0.0000
     29 C30        13.8310    9.7634   10.4176 C.3       1 UNK    0.0000
@<TRIPOS>BOND
     1    2    3 2
     2    3    4 1
     3    3    5 1
     4    5   29 1
     5    5    6 1
     6    6    7 1
     7    7    8 1
     8    8    9 1
     9    9   10 1
    10    9   29 1
    11   10   11 1
    12   11   12 1
    13   12   13 1
    14   13   14 2
    15   14   15 1
    16   14   22 1
    17   15   20 ar
    18   15   16 ar
    19   16   17 ar
    20   17   18 ar
    21   18   19 ar
    22   19   20 ar
    23   20   21 1
    24   22   27 ar
    25   22   23 ar
    26   23   24 ar
    27   24   25 ar
    28   25   26 ar
    29   26   27 ar
    30   27   28 1
@<TRIPOS>SUBSTRUCTURE
     1 UNK     1 RESIDUE           4 A     UNK     0 ROOT

#	Name: CHEMBL272715
#	Creating user name:	j2ho
#	Creation time:	10. 04. 2025 18:12
#	Modifying user name:	j2ho
#	Modification time:	10. 04. 2025 18:12
#	Program:	corina 5.0.0 0026  29.08.2023
@<TRIPOS>MOLECULE
CHEMBL272715
34 38 1 0 0
SMALL
NO_CHARGES


@<TRIPOS>ATOM
      1 C1         11.5695   11.6594   -1.6691 C.3       1 UNK    0.0000
      2 C2         10.9475   10.5035   -0.9289 C.ar      1 UNK    0.0000
      3 C3         11.7573    9.6058   -0.2491 C.ar      1 UNK    0.0000
      4 C4         11.2028    8.5425    0.4333 C.ar      1 UNK    0.0000
      5 C5          9.8272    8.3685    0.4399 C.ar      1 UNK    0.0000
      6 C6          9.0024    9.2743   -0.2472 C.ar      1 UNK    0.0000
      7 C7          9.5797   10.3461   -0.9330 C.ar      1 UNK    0.0000
      8 N8          7.7204    8.8585   -0.0749 N.2       1 UNK    0.0000
      9 C9          7.7039    7.7795    0.6687 C.2       1 UNK    0.0000
     10 S10         6.2528    6.9030    1.1493 S.3       1 UNK    0.0000
     11 C11         4.9900    7.9227    0.3483 C.3       1 UNK    0.0000
     12 C12         3.6262    7.3468    0.6304 C.2       1 UNK    0.0000
     13 O13         3.5186    6.3457    1.3064 O.2       1 UNK    0.0000
     14 N14         2.5260    7.9445    0.1314 N.am      1 UNK    0.0000
     15 C15         2.5026    9.2117   -0.6137 C.3       1 UNK    0.0000
     16 C16         1.0351    9.4865   -1.0042 C.3       1 UNK    0.0000
     17 C17         0.3905    8.0763   -0.9478 C.3       1 UNK    0.0000
     18 C18         1.1467    7.4362    0.2431 C.3       1 UNK    0.0000
     19 C20         1.1305    5.9337    0.1280 C.2       1 UNK    0.0000
     20 O21         2.0057    5.3632   -0.4883 O.2       1 UNK    0.0000
     21 N22         0.1435    5.2238    0.7097 N.am      1 UNK    0.0000
     22 C23         0.1769    3.8243    0.6808 C.ar      1 UNK    0.0000
     23 C24         0.8089    3.1649   -0.3636 C.ar      1 UNK    0.0000
     24 C25         0.8409    1.7838   -0.3898 C.ar      1 UNK    0.0000
     25 C26         0.2444    1.0549    0.6230 C.ar      1 UNK    0.0000
     26 C27        -0.3922    1.7035    1.6641 C.ar      1 UNK    0.0000
     27 C28        -0.4243    3.0894    1.7015 C.ar      1 UNK    0.0000
     28 N29        -1.0650    3.7500    2.7605 N.pl3     1 UNK    0.0000
     29 C30        -0.5302    4.7585    3.5096 C.2       1 UNK    0.0000
     30 C31        -1.4464    5.1347    4.4251 C.2       1 UNK    0.0000
     31 C32        -2.5850    4.3249    4.2414 C.2       1 UNK    0.0000
     32 C33        -2.3247    3.4871    3.2170 C.2       1 UNK    0.0000
     33 N34         8.9804    7.4324    1.0108 N.pl3     1 UNK    0.0000
     34 C35         9.3792    6.2839    1.8282 C.3       1 UNK    0.0000
@<TRIPOS>BOND
     1    1    2 1
     2    2    7 ar
     3    2    3 ar
     4    3    4 ar
     5    4    5 ar
     6    5   33 1
     7    5    6 ar
     8    6    7 ar
     9    6    8 1
    10    8    9 2
    11    9   10 1
    12    9   33 1
    13   10   11 1
    14   11   12 1
    15   12   13 2
    16   12   14 am
    17   14   18 1
    18   14   15 1
    19   15   16 1
    20   16   17 1
    21   17   18 1
    22   18   19 1
    23   19   20 2
    24   19   21 am
    25   21   22 1
    26   22   27 ar
    27   22   23 ar
    28   23   24 ar
    29   24   25 ar
    30   25   26 ar
    31   26   27 ar
    32   27   28 1
    33   28   32 1
    34   28   29 1
    35   29   30 2
    36   30   31 1
    37   31   32 2
    38   33   34 1
@<TRIPOS>SUBSTRUCTURE
     1 UNK     1 RESIDUE           4 A     UNK     0 ROOT

#	Name: CHEMBL1969046
#	Creating user name:	j2ho
#	Creation time:	10. 04. 2025 18:10
#	Modifying user name:	j2ho
#	Modification time:	10. 04. 2025 18:10
#	Program:	corina 5.0.0 0026  29.08.2023
@<TRIPOS>MOLECULE
CHEMBL1969046
33 36 1 0 0
SMALL
NO_CHARGES


@<TRIPOS>ATOM
      1 C1          2.0068    9.6473    0.0599 C.3       1 UNK    0.0000
      2 C2          2.5812    8.2541    0.0442 C.ar      1 UNK    0.0000
      3 C3          3.1783    7.7397    1.1801 C.ar      1 UNK    0.0000
      4 C4          3.7043    6.4617    1.1660 C.ar      1 UNK    0.0000
      5 C5          3.6329    5.6974    0.0161 C.ar      1 UNK    0.0000
      6 S6          4.3034    4.0681   -0.0019 S.o2      1 UNK    0.0000
      7 O7          4.8061    3.8266    1.3051 O.2       1 UNK    0.0000
      8 O8          5.1046    3.9768   -1.1719 O.2       1 UNK    0.0000
      9 N9          3.0394    3.0202   -0.2178 N.am      1 UNK    0.0000
     10 C10         3.2591    1.7335   -0.2693 C.2       1 UNK    0.0000
     11 C11         4.6254    1.2143   -0.1366 C.2       1 UNK    0.0000
     12 C12         4.8693   -0.1139   -0.1878 C.2       1 UNK    0.0000
     13 N13         6.1704   -0.5772   -0.0591 N.pl3     1 UNK    0.0000
     14 C14         6.5016   -1.4488    0.9807 C.ar      1 UNK    0.0000
     15 C15         5.5719   -1.7287    1.9764 C.ar      1 UNK    0.0000
     16 C16         5.8948   -2.5905    3.0074 C.ar      1 UNK    0.0000
     17 C17         7.1420   -3.1797    3.0559 C.ar      1 UNK    0.0000
     18 C18         8.0831   -2.9056    2.0613 C.ar      1 UNK    0.0000
     19 C19         9.4189   -3.5347    2.1112 C.2       1 UNK    0.0000
     20 O20        10.2360   -3.2949    1.2449 O.2       1 UNK    0.0000
     21 O21         9.7309   -4.3744    3.1174 O.3       1 UNK    0.0000
     22 C22         7.7556   -2.0397    1.0173 C.ar      1 UNK    0.0000
     23 C23         3.7678   -1.0773   -0.3795 C.2       1 UNK    0.0000
     24 O24         4.0009   -2.2697   -0.4238 O.2       1 UNK    0.0000
     25 C25         2.3823   -0.5879   -0.5162 C.ar      1 UNK    0.0000
     26 C26         1.3257   -1.4773   -0.6970 C.ar      1 UNK    0.0000
     27 C27         0.0365   -0.9944   -0.8222 C.ar      1 UNK    0.0000
     28 C28        -0.2108    0.3659   -0.7694 C.ar      1 UNK    0.0000
     29 C29         0.8285    1.2621   -0.5903 C.ar      1 UNK    0.0000
     30 C30         2.1296    0.7938   -0.4624 C.ar      1 UNK    0.0000
     31 C31         3.0407    6.2136   -1.1211 C.ar      1 UNK    0.0000
     32 C32         2.9684    5.3829   -2.3764 C.3       1 UNK    0.0000
     33 C33         2.5107    7.4905   -1.1057 C.ar      1 UNK    0.0000
@<TRIPOS>BOND
     1    1    2 1
     2    2   33 ar
     3    2    3 ar
     4    3    4 ar
     5    4    5 ar
     6    5    6 1
     7    5   31 ar
     8    6    7 2
     9    6    8 2
    10    6    9 am
    11    9   10 2
    12   10   30 1
    13   10   11 1
    14   11   12 2
    15   12   13 1
    16   12   23 1
    17   13   14 1
    18   14   22 ar
    19   14   15 ar
    20   15   16 ar
    21   16   17 ar
    22   17   18 ar
    23   18   19 1
    24   18   22 ar
    25   19   20 2
    26   19   21 1
    27   23   24 2
    28   23   25 1
    29   25   30 ar
    30   25   26 ar
    31   26   27 ar
    32   27   28 ar
    33   28   29 ar
    34   29   30 ar
    35   31   32 1
    36   31   33 ar
@<TRIPOS>SUBSTRUCTURE
     1 UNK     1 RESIDUE           4 A     UNK     0 ROOT

#	Name: CHEMBL136332
#	Creating user name:	j2ho
#	Creation time:	10. 04. 2025 18:09
#	Modifying user name:	j2ho
#	Modification time:	10. 04. 2025 18:09
#	Program:	corina 5.0.0 0026  29.08.2023
@<TRIPOS>MOLECULE
CHEMBL136332
32 35 1 0 0
SMALL
NO_CHARGES


@<TRIPOS>ATOM
      1 C1         -1.0088   14.4645    2.7740 C.3       1 UNK    0.0000
      2 C2         -2.2098   13.5260    2.9073 C.3       1 UNK    0.0000
      3 N3         -3.1770   13.8138    1.8397 N.3       1 UNK    0.0000
      4 C4         -3.6593   15.1987    1.9256 C.3       1 UNK    0.0000
      5 C5         -4.5811   15.3434    3.1382 C.3       1 UNK    0.0000
      6 C6         -2.5990   13.5388    0.5175 C.3       1 UNK    0.0000
      7 C7         -2.3379   12.0377    0.3773 C.3       1 UNK    0.0000
      8 O8         -3.5813   11.3338    0.4002 O.3       1 UNK    0.0000
      9 C9         -3.5265    9.9800    0.2854 C.ar      1 UNK    0.0000
     10 C10        -4.6966    9.2351    0.3001 C.ar      1 UNK    0.0000
     11 C11        -4.6418    7.8601    0.1845 C.ar      1 UNK    0.0000
     12 C12        -3.4148    7.2231    0.0530 C.ar      1 UNK    0.0000
     13 N13        -3.3583    5.8290   -0.0637 N.pl3     1 UNK    0.0000
     14 C14        -2.3743    5.2395   -0.8345 C.ar      1 UNK    0.0000
     15 N15        -1.5593    6.0185   -1.5374 N.ar      1 UNK    0.0000
     16 C16        -0.6034    5.5054   -2.2891 C.ar      1 UNK    0.0000
     17 C17        -0.4605    4.1105   -2.3343 C.ar      1 UNK    0.0000
     18 C18         0.5445    3.5019   -3.1217 C.2       1 UNK    0.0000
     19 C19         0.6430    2.1372   -3.1328 C.2       1 UNK    0.0000
     20 C20         1.6860    1.4693   -3.9475 C.2       1 UNK    0.0000
     21 C21         1.7063    1.5246   -5.3404 C.2       1 UNK    0.0000
     22 C22         2.7158    0.8736   -5.9125 C.2       1 UNK    0.0000
     23 S23         3.7190    0.1207   -4.6805 S.3       1 UNK    0.0000
     24 C24         2.6890    0.7544   -3.4038 C.2       1 UNK    0.0000
     25 C25        -0.2910    1.3422   -2.3323 C.2       1 UNK    0.0000
     26 O26        -0.2103    0.1267   -2.3366 O.2       1 UNK    0.0000
     27 N27        -1.2422    1.9479   -1.5958 N.am      1 UNK    0.0000
     28 C28        -2.1728    1.1382   -0.8057 C.3       1 UNK    0.0000
     29 C29        -1.3450    3.3162   -1.5740 C.ar      1 UNK    0.0000
     30 N30        -2.2779    3.9191   -0.8450 N.ar      1 UNK    0.0000
     31 C31        -2.2436    7.9692    0.0432 C.ar      1 UNK    0.0000
     32 C32        -2.3005    9.3445    0.1541 C.ar      1 UNK    0.0000
@<TRIPOS>BOND
     1    1    2 1
     2    2    3 1
     3    3    4 1
     4    3    6 1
     5    4    5 1
     6    6    7 1
     7    7    8 1
     8    8    9 1
     9    9   32 ar
    10    9   10 ar
    11   10   11 ar
    12   11   12 ar
    13   12   13 1
    14   12   31 ar
    15   13   14 1
    16   14   30 ar
    17   14   15 ar
    18   15   16 ar
    19   16   17 ar
    20   17   29 ar
    21   17   18 1
    22   18   19 2
    23   19   20 1
    24   19   25 1
    25   20   24 2
    26   20   21 1
    27   21   22 2
    28   22   23 1
    29   23   24 1
    30   25   26 2
    31   25   27 am
    32   27   28 1
    33   27   29 1
    34   29   30 ar
    35   31   32 ar
@<TRIPOS>SUBSTRUCTURE
     1 UNK     1 RESIDUE           4 A     UNK     0 ROOT

#	Name: CHEMBL4859756
#	Creating user name:	j2ho
#	Creation time:	10. 04. 2025 18:00
#	Modifying user name:	j2ho
#	Modification time:	10. 04. 2025 18:00
#	Program:	corina 5.0.0 0026  29.08.2023
@<TRIPOS>MOLECULE
CHEMBL4859756
35 38 1 0 0
SMALL
NO_CHARGES


@<TRIPOS>ATOM
      1 C1          3.7787    2.1897   -0.1792 C.3       1 UNK    0.0000
      2 C2          2.4832    1.4204   -0.1492 C.ar      1 UNK    0.0000
      3 C3          2.4999    0.0379   -0.1514 C.ar      1 UNK    0.0000
      4 C4          1.3117   -0.6676   -0.1244 C.ar      1 UNK    0.0000
      5 C5          0.1064    0.0091   -0.0942 C.ar      1 UNK    0.0000
      6 C6         -1.1891   -0.7602   -0.0647 C.3       1 UNK    0.0000
      7 N7         -1.7641   -0.8001   -1.4116 N.am      1 UNK    0.0000
      8 C8         -2.9309   -1.4392   -1.6275 C.2       1 UNK    0.0000
      9 O9         -3.5052   -1.9816   -0.7062 O.2       1 UNK    0.0000
     10 C10        -3.5160   -1.4798   -2.9982 C.2       1 UNK    0.0000
     11 O11        -2.9444   -0.9400   -3.9151 O.2       1 UNK    0.0000
     12 C12        -4.8206   -2.1944   -3.2397 C.3       1 UNK    0.0000
     13 C14        -4.5848   -3.7190   -3.2775 C.3       1 UNK    0.0000
     14 C15        -5.5419   -4.1909   -4.4039 C.3       1 UNK    0.0000
     15 C16        -5.4608   -3.0054   -5.3978 C.3       1 UNK    0.0000
     16 N17        -5.3695   -1.8050   -4.5468 N.am      1 UNK    0.0000
     17 C18        -5.7291   -0.5572   -4.9076 C.2       1 UNK    0.0000
     18 O19        -5.6092    0.3593   -4.1224 O.2       1 UNK    0.0000
     19 C20        -6.2800   -0.3009   -6.2867 C.3       1 UNK    0.0000
     20 N21        -6.5925    1.1232   -6.4308 N.am      1 UNK    0.0000
     21 C22        -7.1008    1.5877   -7.5893 C.2       1 UNK    0.0000
     22 O23        -7.2999    0.8251   -8.5146 O.2       1 UNK    0.0000
     23 C24        -7.4162    3.0253   -7.7348 C.ar      1 UNK    0.0000
     24 C25        -7.3116    3.8956   -6.6574 C.ar      1 UNK    0.0000
     25 C26        -7.6105    5.2447   -6.8319 C.ar      1 UNK    0.0000
     26 N27        -8.0027    5.7227   -7.9867 N.ar      1 UNK    0.0000
     27 C28        -8.1315    4.9443   -9.0640 C.ar      1 UNK    0.0000
     28 C29        -8.5534    5.4772  -10.2961 C.ar      1 UNK    0.0000
     29 C30        -8.6758    4.6613  -11.3780 C.ar      1 UNK    0.0000
     30 C31        -8.3896    3.3004  -11.2880 C.ar      1 UNK    0.0000
     31 C32        -7.9782    2.7494  -10.1118 C.ar      1 UNK    0.0000
     32 C33        -7.8412    3.5601   -8.9773 C.ar      1 UNK    0.0000
     33 C34         0.0898    1.3911   -0.0906 C.ar      1 UNK    0.0000
     34 C35        -1.2241    2.1287   -0.0641 C.3       1 UNK    0.0000
     35 C36         1.2783    2.0969   -0.1172 C.ar      1 UNK    0.0000
@<TRIPOS>BOND
     1    1    2 1
     2    2   35 ar
     3    2    3 ar
     4    3    4 ar
     5    4    5 ar
     6    5    6 1
     7    5   33 ar
     8    6    7 1
     9    7    8 am
    10    8    9 2
    11    8   10 1
    12   10   11 2
    13   10   12 1
    14   12   16 1
    15   12   13 1
    16   13   14 1
    17   14   15 1
    18   15   16 1
    19   16   17 am
    20   17   18 2
    21   17   19 1
    22   19   20 1
    23   20   21 am
    24   21   22 2
    25   21   23 1
    26   23   32 ar
    27   23   24 ar
    28   24   25 ar
    29   25   26 ar
    30   26   27 ar
    31   27   32 ar
    32   27   28 ar
    33   28   29 ar
    34   29   30 ar
    35   30   31 ar
    36   31   32 ar
    37   33   34 1
    38   33   35 ar
@<TRIPOS>SUBSTRUCTURE
     1 UNK     1 RESIDUE           4 A     UNK     0 ROOT

#	Name: CHEMBL4210210
#	Creating user name:	j2ho
#	Creation time:	10. 04. 2025 18:16
#	Modifying user name:	j2ho
#	Modification time:	10. 04. 2025 18:16
#	Program:	corina 5.0.0 0026  29.08.2023
@<TRIPOS>MOLECULE
CHEMBL4210210
27 29 1 0 0
SMALL
NO_CHARGES


@<TRIPOS>ATOM
      1 C1         -4.5348    4.9711   -2.9847 C.3       1 UNK    0.0000
      2 O2         -4.1613    4.7631   -1.5970 O.3       1 UNK    0.0000
      3 C3         -3.0063    4.1192   -1.3667 C.2       1 UNK    0.0000
      4 O4         -2.3297    3.7419   -2.2939 O.2       1 UNK    0.0000
      5 C5         -2.5534    3.8670    0.0483 C.3       1 UNK    0.0000
      6 C6         -1.2372    3.1333    0.0313 C.ar      1 UNK    0.0000
      7 C7         -1.2178    1.7508    0.0173 C.ar      1 UNK    0.0000
      8 C8         -0.0126    1.0758    0.0080 C.ar      1 UNK    0.0000
      9 C9          1.1790    1.7863    0.0004 C.ar      1 UNK    0.0000
     10 O10         2.3659    1.1247   -0.0150 O.3       1 UNK    0.0000
     11 C11         3.5525    1.9209   -0.0220 C.3       1 UNK    0.0000
     12 C12         4.7612    1.0211   -0.0390 C.2       1 UNK    0.0000
     13 O13         5.4126    0.5372    1.0378 O.3       1 UNK    0.0000
     14 C14         6.4296   -0.2214    0.5933 C.2       1 UNK    0.0000
     15 C15         7.4013   -0.9434    1.4396 C.ar      1 UNK    0.0000
     16 C16         7.3094   -0.8719    2.8305 C.ar      1 UNK    0.0000
     17 C17         8.2196   -1.5481    3.6154 C.ar      1 UNK    0.0000
     18 C18         9.2250   -2.2983    3.0294 C.ar      1 UNK    0.0000
     19 C19         9.3263   -2.3768    1.6536 C.ar      1 UNK    0.0000
     20 C20         8.4161   -1.7079    0.8507 C.ar      1 UNK    0.0000
     21 O21         8.5111   -1.7893   -0.5014 O.3       1 UNK    0.0000
     22 C22         9.5717   -2.5876   -1.0304 C.3       1 UNK    0.0000
     23 N23         6.4145   -0.2121   -0.7194 N.2       1 UNK    0.0000
     24 C24         5.3869    0.5468   -1.1310 C.2       1 UNK    0.0000
     25 C25         5.0041    0.8215   -2.5625 C.3       1 UNK    0.0000
     26 C26         1.1568    3.1735    0.0081 C.ar      1 UNK    0.0000
     27 C27        -0.0511    3.8437    0.0233 C.ar      1 UNK    0.0000
@<TRIPOS>BOND
     1    1    2 1
     2    2    3 1
     3    3    4 2
     4    3    5 1
     5    5    6 1
     6    6   27 ar
     7    6    7 ar
     8    7    8 ar
     9    8    9 ar
    10    9   10 1
    11    9   26 ar
    12   10   11 1
    13   11   12 1
    14   12   24 2
    15   12   13 1
    16   13   14 1
    17   14   15 1
    18   14   23 2
    19   15   20 ar
    20   15   16 ar
    21   16   17 ar
    22   17   18 ar
    23   18   19 ar
    24   19   20 ar
    25   20   21 1
    26   21   22 1
    27   23   24 1
    28   24   25 1
    29   26   27 ar
@<TRIPOS>SUBSTRUCTURE
     1 UNK     1 RESIDUE           4 A     UNK     0 ROOT

#	Name: CHEMBL1602148
#	Creating user name:	j2ho
#	Creation time:	10. 04. 2025 18:06
#	Modifying user name:	j2ho
#	Modification time:	10. 04. 2025 18:06
#	Program:	corina 5.0.0 0026  29.08.2023
@<TRIPOS>MOLECULE
CHEMBL1602148
28 30 1 0 0
SMALL
NO_CHARGES


@<TRIPOS>ATOM
      1 C1        -10.1427    5.7940    0.3867 C.3       1 UNK    0.0000
      2 C2         -9.2335    4.6075    0.5786 C.2       1 UNK    0.0000
      3 C3         -7.9107    4.5942    0.3439 C.2       1 UNK    0.0000
      4 C4         -7.4471    3.2380    0.6661 C.2       1 UNK    0.0000
      5 C5         -6.0776    2.7277    0.5718 C.2       1 UNK    0.0000
      6 O6         -5.8369    1.5769    0.8722 O.2       1 UNK    0.0000
      7 C7         -4.9673    3.6317    0.1016 C.3       1 UNK    0.0000
      8 O8         -3.7149    2.8972    0.0954 O.3       1 UNK    0.0000
      9 C9         -2.6141    3.5670   -0.3031 C.2       1 UNK    0.0000
     10 O10        -2.6995    4.7332   -0.6361 O.2       1 UNK    0.0000
     11 C11        -1.3152    2.8891   -0.3346 C.2       1 UNK    0.0000
     12 N12        -1.2341    1.6443    0.0169 N.2       1 UNK    0.0000
     13 N13        -0.0111    0.9658    0.0074 N.am      1 UNK    0.0000
     14 C14         1.1490    1.6513   -0.0000 C.2       1 UNK    0.0000
     15 O15         2.2063    1.0578   -0.0089 O.2       1 UNK    0.0000
     16 C16         1.1276    3.1588    0.0022 C.3       1 UNK    0.0000
     17 C17        -0.0930    3.6464   -0.7811 C.3       1 UNK    0.0000
     18 C18        -8.5698    2.5408    1.0708 C.2       1 UNK    0.0000
     19 C19        -8.6067    1.0967    1.5003 C.3       1 UNK    0.0000
     20 N20        -9.6232    3.3752    1.0175 N.pl3     1 UNK    0.0000
     21 C21       -10.9966    3.0110    1.3743 C.3       1 UNK    0.0000
     22 C22       -11.7202    2.4762    0.1368 C.3       1 UNK    0.0000
     23 C23       -13.1330    2.1016    0.5038 C.ar      1 UNK    0.0000
     24 C24       -13.4186    0.8191    0.9335 C.ar      1 UNK    0.0000
     25 C25       -14.7137    0.4769    1.2748 C.ar      1 UNK    0.0000
     26 C26       -15.7251    1.4141    1.1763 C.ar      1 UNK    0.0000
     27 C27       -15.4404    2.6950    0.7416 C.ar      1 UNK    0.0000
     28 C28       -14.1444    3.0388    0.4053 C.ar      1 UNK    0.0000
@<TRIPOS>BOND
     1    1    2 1
     2    2   20 1
     3    2    3 2
     4    3    4 1
     5    4    5 1
     6    4   18 2
     7    5    6 2
     8    5    7 1
     9    7    8 1
    10    8    9 1
    11    9   10 2
    12    9   11 1
    13   11   17 1
    14   11   12 2
    15   12   13 1
    16   13   14 am
    17   14   15 2
    18   14   16 1
    19   16   17 1
    20   18   19 1
    21   18   20 1
    22   20   21 1
    23   21   22 1
    24   22   23 1
    25   23   28 ar
    26   23   24 ar
    27   24   25 ar
    28   25   26 ar
    29   26   27 ar
    30   27   28 ar
@<TRIPOS>SUBSTRUCTURE
     1 UNK     1 RESIDUE           4 A     UNK     0 ROOT

#	Name: CHEMBL3759281
#	Creating user name:	j2ho
#	Creation time:	10. 04. 2025 18:01
#	Modifying user name:	j2ho
#	Modification time:	10. 04. 2025 18:01
#	Program:	corina 5.0.0 0026  29.08.2023
@<TRIPOS>MOLECULE
CHEMBL3759281
34 38 1 0 0
SMALL
NO_CHARGES


@<TRIPOS>ATOM
      1 O1          3.3910   -1.6743    4.7275 O.2       1 UNK    0.0000
      2 S2          3.1224   -1.6885    3.3322 S.o2      1 UNK    0.0000
      3 O3          2.4098   -2.7359    2.6885 O.2       1 UNK    0.0000
      4 N4          2.2996   -0.2902    3.0001 N.am      1 UNK    0.0000
      5 C5          1.8993    0.0150    1.6243 C.3       1 UNK    0.0000
      6 C6          1.9865    1.5261    1.3918 C.3       1 UNK    0.0000
      7 C7          1.4234    1.8484   -0.0016 C.3       1 UNK    0.0000
      8 C8          2.0575    0.8608   -1.0080 C.3       1 UNK    0.0000
      9 C9          1.1183   -0.3633   -1.0056 C.3       1 UNK    0.0000
     10 C10         0.0021   -0.0041    0.0020 C.3       1 UNK    0.0000
     11 C11         0.4619   -0.4611    1.3957 C.3       1 UNK    0.0000
     12 N12        -0.0181    1.4829    0.0102 N.3       1 UNK    0.0000
     13 C13        -0.7037    2.0067   -1.1787 C.3       1 UNK    0.0000
     14 C14        -0.9255    3.5119   -1.0179 C.3       1 UNK    0.0000
     15 O15         0.3379    4.1788   -0.9856 O.3       1 UNK    0.0000
     16 C16         0.3187    5.5306   -0.8463 C.ar      1 UNK    0.0000
     17 C17        -0.8931    6.2011   -0.7485 C.ar      1 UNK    0.0000
     18 C18        -0.9171    7.5751   -0.6010 C.ar      1 UNK    0.0000
     19 C19         0.2636    8.2897   -0.5615 C.ar      1 UNK    0.0000
     20 C20         1.4839    7.6248   -0.6647 C.ar      1 UNK    0.0000
     21 C21         2.7543    8.3905   -0.6220 C.ar      1 UNK    0.0000
     22 C22         3.9750    7.7257   -0.7189 C.ar      1 UNK    0.0000
     23 C23         5.1534    8.4433   -0.6839 C.ar      1 UNK    0.0000
     24 C24         5.1245    9.8189   -0.5414 C.ar      1 UNK    0.0000
     25 C25         3.9157   10.4834   -0.4395 C.ar      1 UNK    0.0000
     26 C26         2.7310    9.7763   -0.4791 C.ar      1 UNK    0.0000
     27 C27         1.5078    6.2397   -0.8076 C.ar      1 UNK    0.0000
     28 C28         4.6842   -1.5792    2.5238 C.ar      1 UNK    0.0000
     29 C29         4.8280   -2.0501    1.2317 C.ar      1 UNK    0.0000
     30 C30         6.0512   -1.9598    0.5943 C.ar      1 UNK    0.0000
     31 C31         7.1349   -1.4089    1.2520 C.ar      1 UNK    0.0000
     32 C32         6.9935   -0.9422    2.5476 C.ar      1 UNK    0.0000
     33 F33         8.0519   -0.4031    3.1913 F         1 UNK    0.0000
     34 C34         5.7661   -1.0280    3.1832 C.ar      1 UNK    0.0000
@<TRIPOS>BOND
     1    1    2 2
     2    2    3 2
     3    2    4 am
     4    2   28 1
     5    4    5 1
     6    5   11 1
     7    5    6 1
     8    6    7 1
     9    7   12 1
    10    7    8 1
    11    8    9 1
    12    9   10 1
    13   10   11 1
    14   10   12 1
    15   12   13 1
    16   13   14 1
    17   14   15 1
    18   15   16 1
    19   16   27 ar
    20   16   17 ar
    21   17   18 ar
    22   18   19 ar
    23   19   20 ar
    24   20   21 1
    25   20   27 ar
    26   21   26 ar
    27   21   22 ar
    28   22   23 ar
    29   23   24 ar
    30   24   25 ar
    31   25   26 ar
    32   28   34 ar
    33   28   29 ar
    34   29   30 ar
    35   30   31 ar
    36   31   32 ar
    37   32   33 1
    38   32   34 ar
@<TRIPOS>SUBSTRUCTURE
     1 UNK     1 RESIDUE           4 A     UNK     0 ROOT

#	Name: CHEMBL3680450
#	Creating user name:	j2ho
#	Creation time:	10. 04. 2025 18:11
#	Modifying user name:	j2ho
#	Modification time:	10. 04. 2025 18:11
#	Program:	corina 5.0.0 0026  29.08.2023
@<TRIPOS>MOLECULE
CHEMBL3680450
36 39 1 0 0
SMALL
NO_CHARGES


@<TRIPOS>ATOM
      1 C1         -3.5459   13.5716   -7.9518 C.3       1 UNK    0.0000
      2 O2         -4.6720   12.8170   -7.4995 O.3       1 UNK    0.0000
      3 C3         -4.5245   11.4040   -7.6535 C.3       1 UNK    0.0000
      4 C4         -5.7825   10.7010   -7.1394 C.3       1 UNK    0.0000
      5 C5         -5.6246    9.1881   -7.3043 C.3       1 UNK    0.0000
      6 O6         -6.7995    8.5315   -6.8242 O.3       1 UNK    0.0000
      7 C7         -6.7550    7.1073   -6.9331 C.3       1 UNK    0.0000
      8 C8         -6.1531    6.5331   -5.6778 C.2       1 UNK    0.0000
      9 C9         -6.9338    6.2904   -4.6097 C.2       1 UNK    0.0000
     10 C10        -6.3516    5.7255   -3.3749 C.2       1 UNK    0.0000
     11 O11        -5.1634    5.4733   -3.3230 O.2       1 UNK    0.0000
     12 N12        -7.1378    5.4897   -2.3058 N.am      1 UNK    0.0000
     13 C13        -6.5722    5.0467   -1.1061 C.ar      1 UNK    0.0000
     14 C14        -7.1024    5.4624    0.1087 C.ar      1 UNK    0.0000
     15 C15        -6.5418    5.0228    1.2916 C.ar      1 UNK    0.0000
     16 C16        -5.4569    4.1652    1.2678 C.ar      1 UNK    0.0000
     17 C17        -4.9235    3.7537    0.0604 C.ar      1 UNK    0.0000
     18 C18        -3.7381    2.8235    0.0392 C.3       1 UNK    0.0000
     19 N19        -2.5013    3.6086    0.0321 N.pl3     1 UNK    0.0000
     20 C20        -1.2806    2.9706    0.0131 C.ar      1 UNK    0.0000
     21 N21        -1.2038    1.6458   -0.0045 N.ar      1 UNK    0.0000
     22 C22        -0.0378    1.0223   -0.0173 C.ar      1 UNK    0.0000
     23 N23         1.1118    1.6581   -0.0248 N.ar      1 UNK    0.0000
     24 C24         1.1483    2.9946   -0.0139 C.ar      1 UNK    0.0000
     25 C25         2.3678    3.7105   -0.0219 C.ar      1 UNK    0.0000
     26 C26         3.6545    2.9923   -0.0430 C.2       1 UNK    0.0000
     27 N27         4.8118    3.6831   -0.0506 N.am      1 UNK    0.0000
     28 O28         3.6721    1.7764   -0.0536 O.2       1 UNK    0.0000
     29 C29         2.3374    5.1001   -0.0102 C.ar      1 UNK    0.0000
     30 C30         1.1295    5.7816    0.0097 C.ar      1 UNK    0.0000
     31 C31        -0.0598    5.1096    0.0182 C.ar      1 UNK    0.0000
     32 C32        -0.0725    3.7106    0.0059 C.ar      1 UNK    0.0000
     33 C33        -5.4796    4.1898   -1.1265 C.ar      1 UNK    0.0000
     34 C34        -8.3784    6.5993   -4.6791 C.2       1 UNK    0.0000
     35 C35        -8.9658    6.7330   -5.8601 C.2       1 UNK    0.0000
     36 C36        -8.1715    6.5689   -7.1280 C.3       1 UNK    0.0000
@<TRIPOS>BOND
     1    1    2 1
     2    2    3 1
     3    3    4 1
     4    4    5 1
     5    5    6 1
     6    6    7 1
     7    7   36 1
     8    7    8 1
     9    8    9 2
    10    9   10 1
    11    9   34 1
    12   10   11 2
    13   10   12 am
    14   12   13 1
    15   13   33 ar
    16   13   14 ar
    17   14   15 ar
    18   15   16 ar
    19   16   17 ar
    20   17   18 1
    21   17   33 ar
    22   18   19 1
    23   19   20 1
    24   20   32 ar
    25   20   21 ar
    26   21   22 ar
    27   22   23 ar
    28   23   24 ar
    29   24   32 ar
    30   24   25 ar
    31   25   26 1
    32   25   29 ar
    33   26   27 am
    34   26   28 2
    35   29   30 ar
    36   30   31 ar
    37   31   32 ar
    38   34   35 2
    39   35   36 1
@<TRIPOS>SUBSTRUCTURE
     1 UNK     1 RESIDUE           4 A     UNK     0 ROOT

#	Name: CHEMBL1491001
#	Creating user name:	j2ho
#	Creation time:	10. 04. 2025 18:08
#	Modifying user name:	j2ho
#	Modification time:	10. 04. 2025 18:08
#	Program:	corina 5.0.0 0026  29.08.2023
@<TRIPOS>MOLECULE
CHEMBL1491001
31 34 1 0 0
SMALL
NO_CHARGES


@<TRIPOS>ATOM
      1 C1          1.7236    6.0087    0.0592 C.3       1 UNK    0.0000
      2 S2         -0.0411    5.5889    0.0657 S.3       1 UNK    0.0000
      3 C3         -0.0294    3.8269    0.0578 C.ar      1 UNK    0.0000
      4 C4          1.1788    3.1388    0.0490 C.ar      1 UNK    0.0000
      5 C5          1.1883    1.7577    0.0423 C.ar      1 UNK    0.0000
      6 C6         -0.0019    1.0554    0.0440 C.ar      1 UNK    0.0000
      7 C7         -1.2127    1.7366    0.0470 C.ar      1 UNK    0.0000
      8 N8         -2.4170    1.0243    0.0429 N.am      1 UNK    0.0000
      9 C9         -2.5158   -0.4346   -0.0837 C.3       1 UNK    0.0000
     10 C10        -3.9415   -0.7925    0.3971 C.3       1 UNK    0.0000
     11 C11        -4.5105   -1.9288   -0.4129 C.2       1 UNK    0.0000
     12 O12        -3.8152   -2.5031   -1.2239 O.2       1 UNK    0.0000
     13 N13        -5.7920   -2.3069   -0.2360 N.am      1 UNK    0.0000
     14 C14        -6.2880   -3.4322   -0.9035 C.ar      1 UNK    0.0000
     15 C15        -5.4629   -4.5260   -1.1314 C.ar      1 UNK    0.0000
     16 C16        -5.9553   -5.6350   -1.7905 C.ar      1 UNK    0.0000
     17 C17        -7.2686   -5.6574   -2.2236 C.ar      1 UNK    0.0000
     18 C18        -8.0926   -4.5704   -1.9979 C.ar      1 UNK    0.0000
     19 S19        -9.7652   -4.6041   -2.5511 S.o2      1 UNK    0.0000
     20 O20       -10.1688   -3.2489   -2.6916 O.2       1 UNK    0.0000
     21 O21        -9.8171   -5.5447   -3.6150 O.2       1 UNK    0.0000
     22 N22       -10.6755   -5.2380   -1.3216 N.am      1 UNK    0.0000
     23 C23       -10.9846   -6.6667   -1.1298 C.3       1 UNK    0.0000
     24 C24       -11.2808   -6.8059    0.3865 C.3       1 UNK    0.0000
     25 C25       -12.0295   -5.4786    0.6782 C.3       1 UNK    0.0000
     26 C26       -11.3146   -4.4687   -0.2440 C.3       1 UNK    0.0000
     27 C27        -7.6076   -3.4601   -1.3345 C.ar      1 UNK    0.0000
     28 C28        -4.7054    0.5227    0.1182 C.3       1 UNK    0.0000
     29 C29        -3.6324    1.5886    0.1487 C.2       1 UNK    0.0000
     30 O30        -3.8387    2.7792    0.2537 O.2       1 UNK    0.0000
     31 C31        -1.2265    3.1239    0.0600 C.ar      1 UNK    0.0000
@<TRIPOS>BOND
     1    1    2 1
     2    2    3 1
     3    3   31 ar
     4    3    4 ar
     5    4    5 ar
     6    5    6 ar
     7    6    7 ar
     8    7    8 1
     9    7   31 ar
    10    8   29 am
    11    8    9 1
    12    9   10 1
    13   10   11 1
    14   10   28 1
    15   11   12 2
    16   11   13 am
    17   13   14 1
    18   14   27 ar
    19   14   15 ar
    20   15   16 ar
    21   16   17 ar
    22   17   18 ar
    23   18   19 1
    24   18   27 ar
    25   19   20 2
    26   19   21 2
    27   19   22 am
    28   22   26 1
    29   22   23 1
    30   23   24 1
    31   24   25 1
    32   25   26 1
    33   28   29 1
    34   29   30 2
@<TRIPOS>SUBSTRUCTURE
     1 UNK     1 RESIDUE           4 A     UNK     0 ROOT

#	Name: CHEMBL520574
#	Creating user name:	j2ho
#	Creation time:	10. 04. 2025 18:09
#	Modifying user name:	j2ho
#	Modification time:	10. 04. 2025 18:09
#	Program:	corina 5.0.0 0026  29.08.2023
@<TRIPOS>MOLECULE
CHEMBL520574
36 39 1 0 0
SMALL
NO_CHARGES


@<TRIPOS>ATOM
      1 C1         -0.0366    9.9361   -1.3321 C.3       1 UNK    0.0000
      2 C2          1.0978   10.2631   -0.3589 C.3       1 UNK    0.0000
      3 O3          1.2178   11.6809   -0.2264 O.3       1 UNK    0.0000
      4 C4          0.4064   12.2867    0.6799 C.ar      1 UNK    0.0000
      5 C5          0.5504   13.6408    0.9456 C.ar      1 UNK    0.0000
      6 C6         -0.2792   14.2554    1.8634 C.ar      1 UNK    0.0000
      7 C7         -1.2455   13.5200    2.5248 C.ar      1 UNK    0.0000
      8 C8         -1.3872   12.1692    2.2660 C.ar      1 UNK    0.0000
      9 C9         -0.5636   11.5510    1.3452 C.ar      1 UNK    0.0000
     10 C10         2.3909    9.6966   -0.8862 C.2       1 UNK    0.0000
     11 O11         3.2328   10.4364   -1.3496 O.2       1 UNK    0.0000
     12 N12         2.6118    8.3678   -0.8427 N.am      1 UNK    0.0000
     13 C13         3.9070    7.8109   -1.2576 C.3       1 UNK    0.0000
     14 C14         4.4675    6.9646   -0.1078 C.3       1 UNK    0.0000
     15 N15         3.4173    6.0465    0.3549 N.am      1 UNK    0.0000
     16 C16         3.6379    4.7176    0.3975 C.2       1 UNK    0.0000
     17 O17         2.7311    3.9599    0.6820 O.2       1 UNK    0.0000
     18 C18         4.9828    4.1816    0.0981 C.ar      1 UNK    0.0000
     19 C19         6.1193    4.8221    0.5949 C.ar      1 UNK    0.0000
     20 C20         7.3712    4.3166    0.3123 C.ar      1 UNK    0.0000
     21 C21         7.5017    3.1740   -0.4574 C.ar      1 UNK    0.0000
     22 C22         6.3797    2.5374   -0.9571 C.ar      1 UNK    0.0000
     23 C23         6.5316    1.2966   -1.7988 C.3       1 UNK    0.0000
     24 O24         6.6360    1.6648   -3.1756 O.3       1 UNK    0.0000
     25 C25         6.7790    0.6579   -4.0733 C.ar      1 UNK    0.0000
     26 C26         6.8186   -0.6598   -3.6418 C.ar      1 UNK    0.0000
     27 C27         6.9632   -1.6835   -4.5566 C.ar      1 UNK    0.0000
     28 C28         7.0707   -1.4046   -5.9095 C.ar      1 UNK    0.0000
     29 C29         7.0339   -0.1015   -6.3557 C.ar      1 UNK    0.0000
     30 C30         6.8816    0.9438   -5.4414 C.ar      1 UNK    0.0000
     31 C31         6.8348    2.3410   -5.9129 C.2       1 UNK    0.0000
     32 N32         6.9339    2.6117   -7.2294 N.am      1 UNK    0.0000
     33 O33         6.7068    3.2484   -5.1137 O.2       1 UNK    0.0000
     34 C34         5.1217    3.0327   -0.6819 C.ar      1 UNK    0.0000
     35 C35         2.1201    6.6029    0.7644 C.3       1 UNK    0.0000
     36 C36         1.5616    7.4497   -0.3801 C.3       1 UNK    0.0000
@<TRIPOS>BOND
     1    1    2 1
     2    2    3 1
     3    2   10 1
     4    3    4 1
     5    4    9 ar
     6    4    5 ar
     7    5    6 ar
     8    6    7 ar
     9    7    8 ar
    10    8    9 ar
    11   10   11 2
    12   10   12 am
    13   12   36 1
    14   12   13 1
    15   13   14 1
    16   14   15 1
    17   15   16 am
    18   15   35 1
    19   16   17 2
    20   16   18 1
    21   18   34 ar
    22   18   19 ar
    23   19   20 ar
    24   20   21 ar
    25   21   22 ar
    26   22   23 1
    27   22   34 ar
    28   23   24 1
    29   24   25 1
    30   25   30 ar
    31   25   26 ar
    32   26   27 ar
    33   27   28 ar
    34   28   29 ar
    35   29   30 ar
    36   30   31 1
    37   31   32 am
    38   31   33 2
    39   35   36 1
@<TRIPOS>SUBSTRUCTURE
     1 UNK     1 RESIDUE           4 A     UNK     0 ROOT

#	Name: CHEMBL5208769
#	Creating user name:	j2ho
#	Creation time:	10. 04. 2025 18:11
#	Modifying user name:	j2ho
#	Modification time:	10. 04. 2025 18:11
#	Program:	corina 5.0.0 0026  29.08.2023
@<TRIPOS>MOLECULE
CHEMBL5208769
29 32 1 0 0
SMALL
NO_CHARGES


@<TRIPOS>ATOM
      1 N1          5.8825   10.5381    1.9241 N.am      1 UNK    0.0000
      2 S2          5.0111   10.1779    0.5628 S.o2      1 UNK    0.0000
      3 O3          5.7738   10.6515   -0.5388 O.2       1 UNK    0.0000
      4 O4          3.6763   10.5923    0.8194 O.2       1 UNK    0.0000
      5 C5          4.9683    8.4222    0.4202 C.ar      1 UNK    0.0000
      6 C6          3.9459    7.7064    1.0156 C.ar      1 UNK    0.0000
      7 C7          3.9089    6.3303    0.9050 C.ar      1 UNK    0.0000
      8 C8          4.9004    5.6653    0.1952 C.ar      1 UNK    0.0000
      9 N9          4.8662    4.2721    0.0817 N.am      1 UNK    0.0000
     10 C10         3.6835    3.6321   -0.0076 C.2       1 UNK    0.0000
     11 O11         2.6518    4.2699   -0.0883 O.2       1 UNK    0.0000
     12 C12         3.6408    2.1540   -0.0074 C.ar      1 UNK    0.0000
     13 C13         4.8048    1.3981   -0.0250 C.ar      1 UNK    0.0000
     14 C14         4.7167   -0.0018   -0.0236 C.ar      1 UNK    0.0000
     15 C15         5.9680   -0.7975   -0.0425 C.ar      1 UNK    0.0000
     16 C16         7.2050   -0.1554   -0.0675 C.ar      1 UNK    0.0000
     17 C17         8.3662   -0.9010   -0.0787 C.ar      1 UNK    0.0000
     18 C18         8.3041   -2.2829   -0.0773 C.ar      1 UNK    0.0000
     19 C19         7.0792   -2.9255   -0.0588 C.ar      1 UNK    0.0000
     20 C20         5.9115   -2.1903   -0.0412 C.ar      1 UNK    0.0000
     21 N21         3.5622   -0.6340   -0.0056 N.ar      1 UNK    0.0000
     22 C22         2.3956    0.0118    0.0120 C.ar      1 UNK    0.0000
     23 C23         1.1762   -0.6910    0.0306 C.ar      1 UNK    0.0000
     24 C24         0.0017   -0.0039    0.0479 C.ar      1 UNK    0.0000
     25 C25        -0.0170    1.3893    0.0475 C.ar      1 UNK    0.0000
     26 C26         1.1441    2.1036    0.0299 C.ar      1 UNK    0.0000
     27 C27         2.3701    1.4295    0.0119 C.ar      1 UNK    0.0000
     28 C28         5.9291    6.3868   -0.3968 C.ar      1 UNK    0.0000
     29 C29         5.9571    7.7632   -0.2872 C.ar      1 UNK    0.0000
@<TRIPOS>BOND
     1    1    2 am
     2    2    3 2
     3    2    4 2
     4    2    5 1
     5    5   29 ar
     6    5    6 ar
     7    6    7 ar
     8    7    8 ar
     9    8    9 1
    10    8   28 ar
    11    9   10 am
    12   10   11 2
    13   10   12 1
    14   12   27 ar
    15   12   13 ar
    16   13   14 ar
    17   14   15 1
    18   14   21 ar
    19   15   20 ar
    20   15   16 ar
    21   16   17 ar
    22   17   18 ar
    23   18   19 ar
    24   19   20 ar
    25   21   22 ar
    26   22   27 ar
    27   22   23 ar
    28   23   24 ar
    29   24   25 ar
    30   25   26 ar
    31   26   27 ar
    32   28   29 ar
@<TRIPOS>SUBSTRUCTURE
     1 UNK     1 RESIDUE           4 A     UNK     0 ROOT

#	Name: CHEMBL3680699
#	Creating user name:	j2ho
#	Creation time:	10. 04. 2025 18:10
#	Modifying user name:	j2ho
#	Modification time:	10. 04. 2025 18:10
#	Program:	corina 5.0.0 0026  29.08.2023
@<TRIPOS>MOLECULE
CHEMBL3680699
34 38 1 0 0
SMALL
NO_CHARGES


@<TRIPOS>ATOM
      1 C1         -0.4857    3.0023    1.4145 C.3       1 UNK    0.0000
      2 N2         -0.7098    1.5646    1.2129 N.3       1 UNK    0.0000
      3 C3         -2.1503    1.2598    1.1362 C.3       1 UNK    0.0000
      4 C4         -2.8146    2.1643    0.0935 C.3       1 UNK    0.0000
      5 C5         -2.0052    2.0787   -1.1927 C.2       1 UNK    0.0000
      6 N6         -2.4343    2.4599   -2.3867 N.2       1 UNK    0.0000
      7 C7         -1.6257    2.3197   -3.3870 C.2       1 UNK    0.0000
      8 N8         -1.9167    2.6672   -4.7000 N.am      1 UNK    0.0000
      9 C9         -0.9970    2.4778   -5.6668 C.2       1 UNK    0.0000
     10 O10         0.0872    2.0030   -5.3897 O.2       1 UNK    0.0000
     11 C11        -1.3066    2.8476   -7.0639 C.ar      1 UNK    0.0000
     12 C12        -2.5529    3.3879   -7.3864 C.ar      1 UNK    0.0000
     13 C13        -2.8333    3.7362   -8.6913 C.ar      1 UNK    0.0000
     14 C14        -1.8867    3.5405   -9.6816 C.ar      1 UNK    0.0000
     15 C15        -0.6519    3.0002   -9.3697 C.ar      1 UNK    0.0000
     16 C16         0.3726    2.7902  -10.4548 C.3       1 UNK    0.0000
     17 N17         0.2061    1.4539  -11.0317 N.am      1 UNK    0.0000
     18 C18         1.0180    1.0431  -12.0259 C.2       1 UNK    0.0000
     19 O19         1.8889    1.7819  -12.4443 O.2       1 UNK    0.0000
     20 C20         0.8505   -0.3006  -12.6060 C.2       1 UNK    0.0000
     21 C21         1.6368   -0.7626  -13.6041 C.2       1 UNK    0.0000
     22 S22         1.1476   -2.3493  -14.0133 S.3       1 UNK    0.0000
     23 C23        -0.1150   -2.2949  -12.7884 C.2       1 UNK    0.0000
     24 C24        -1.0651   -3.3888  -12.4904 C.ar      1 UNK    0.0000
     25 C25        -1.0106   -4.5922  -13.2027 C.ar      1 UNK    0.0000
     26 C26        -1.9219   -5.5840  -12.8855 C.ar      1 UNK    0.0000
     27 C27        -2.8488   -5.3567  -11.8841 C.ar      1 UNK    0.0000
     28 N28        -2.8766   -4.2119  -11.2293 N.ar      1 UNK    0.0000
     29 C29        -2.0266   -3.2403  -11.4909 C.ar      1 UNK    0.0000
     30 N30        -0.0786   -1.1467  -12.1833 N.2       1 UNK    0.0000
     31 C31        -0.3564    2.6528   -8.0676 C.ar      1 UNK    0.0000
     32 S32        -0.1472    1.6445   -2.8576 S.3       1 UNK    0.0000
     33 C33        -0.7510    1.5899   -1.2084 C.2       1 UNK    0.0000
     34 C34        -0.0127    1.0858    0.0080 C.3       1 UNK    0.0000
@<TRIPOS>BOND
     1    1    2 1
     2    2   34 1
     3    2    3 1
     4    3    4 1
     5    4    5 1
     6    5   33 2
     7    5    6 1
     8    6    7 2
     9    7    8 1
    10    7   32 1
    11    8    9 am
    12    9   10 2
    13    9   11 1
    14   11   31 ar
    15   11   12 ar
    16   12   13 ar
    17   13   14 ar
    18   14   15 ar
    19   15   16 1
    20   15   31 ar
    21   16   17 1
    22   17   18 am
    23   18   19 2
    24   18   20 1
    25   20   30 1
    26   20   21 2
    27   21   22 1
    28   22   23 1
    29   23   24 1
    30   23   30 2
    31   24   29 ar
    32   24   25 ar
    33   25   26 ar
    34   26   27 ar
    35   27   28 ar
    36   28   29 ar
    37   32   33 1
    38   33   34 1
@<TRIPOS>SUBSTRUCTURE
     1 UNK     1 RESIDUE           4 A     UNK     0 ROOT

#	Name: CHEMBL3926169
#	Creating user name:	j2ho
#	Creation time:	10. 04. 2025 18:08
#	Modifying user name:	j2ho
#	Modification time:	10. 04. 2025 18:08
#	Program:	corina 5.0.0 0026  29.08.2023
@<TRIPOS>MOLECULE
CHEMBL3926169
30 33 1 0 0
SMALL
NO_CHARGES


@<TRIPOS>ATOM
      1 N1          4.9760   -3.3336   -5.8860 N.1       1 UNK    0.0000
      2 C2          3.9358   -3.4064   -5.4353 C.1       1 UNK    0.0000
      3 C3          2.6245   -3.4982   -4.8671 C.ar      1 UNK    0.0000
      4 N4          2.1331   -2.4953   -4.1636 N.ar      1 UNK    0.0000
      5 C5          0.9241   -2.5334   -3.6114 C.ar      1 UNK    0.0000
      6 C6          0.4567   -1.3687   -2.8361 C.2       1 UNK    0.0000
      7 O7         -0.6475   -1.3807   -2.3269 O.2       1 UNK    0.0000
      8 N8          1.2534   -0.2912   -2.6921 N.am      1 UNK    0.0000
      9 C9          0.7892    0.8655   -1.9221 C.3       1 UNK    0.0000
     10 C10         1.9161    1.8953   -1.8193 C.3       1 UNK    0.0000
     11 C11         3.1564    1.4319   -1.0996 C.2       1 UNK    0.0000
     12 O12         4.2035    1.3437   -1.6959 O.2       1 UNK    0.0000
     13 O13         3.0978    1.1171    0.2040 O.3       1 UNK    0.0000
     14 C14         1.5184    3.3648   -1.6671 C.3       1 UNK    0.0000
     15 C15         2.0989    2.8618   -2.9912 C.3       1 UNK    0.0000
     16 C16         0.0806   -3.6376   -3.7464 C.ar      1 UNK    0.0000
     17 O17        -1.1458   -3.6377   -3.1745 O.3       1 UNK    0.0000
     18 C18         0.5238   -4.7532   -4.4875 C.ar      1 UNK    0.0000
     19 C19        -0.2720   -5.8936   -4.6627 C.ar      1 UNK    0.0000
     20 C20         0.2040   -6.9433   -5.3881 C.ar      1 UNK    0.0000
     21 C21         1.4779   -6.9000   -5.9620 C.ar      1 UNK    0.0000
     22 O22         1.9269   -7.9607   -6.6807 O.3       1 UNK    0.0000
     23 C23         2.5842   -8.9481   -6.0178 C.ar      1 UNK    0.0000
     24 C24         2.7702   -8.8595   -4.6456 C.ar      1 UNK    0.0000
     25 C25         3.4342   -9.8672   -3.9733 C.ar      1 UNK    0.0000
     26 C26         3.9224  -10.9584   -4.6681 C.ar      1 UNK    0.0000
     27 C27         3.7434  -11.0464   -6.0364 C.ar      1 UNK    0.0000
     28 C28         3.0756  -10.0440   -6.7127 C.ar      1 UNK    0.0000
     29 C29         2.2843   -5.7900   -5.8064 C.ar      1 UNK    0.0000
     30 C30         1.8173   -4.7023   -5.0669 C.ar      1 UNK    0.0000
@<TRIPOS>BOND
     1    1    2 3
     2    2    3 1
     3    3   30 ar
     4    3    4 ar
     5    4    5 ar
     6    5    6 1
     7    5   16 ar
     8    6    7 2
     9    6    8 am
    10    8    9 1
    11    9   10 1
    12   10   15 1
    13   10   11 1
    14   10   14 1
    15   11   12 2
    16   11   13 1
    17   14   15 1
    18   16   17 1
    19   16   18 ar
    20   18   30 ar
    21   18   19 ar
    22   19   20 ar
    23   20   21 ar
    24   21   22 1
    25   21   29 ar
    26   22   23 1
    27   23   28 ar
    28   23   24 ar
    29   24   25 ar
    30   25   26 ar
    31   26   27 ar
    32   27   28 ar
    33   29   30 ar
@<TRIPOS>SUBSTRUCTURE
     1 UNK     1 RESIDUE           4 A     UNK     0 ROOT

#	Name: CHEMBL288371
#	Creating user name:	j2ho
#	Creation time:	10. 04. 2025 17:59
#	Modifying user name:	j2ho
#	Modification time:	10. 04. 2025 17:59
#	Program:	corina 5.0.0 0026  29.08.2023
@<TRIPOS>MOLECULE
CHEMBL288371
33 37 1 0 0
SMALL
NO_CHARGES


@<TRIPOS>ATOM
      1 C1         10.4393    4.4572    0.8161 C.3       1 UNK    0.0000
      2 O2          9.1230    4.8973    0.4759 O.3       1 UNK    0.0000
      3 C3          8.7287    6.1014    0.9673 C.ar      1 UNK    0.0000
      4 C4          9.5931    6.8466    1.7566 C.ar      1 UNK    0.0000
      5 C5          9.1876    8.0671    2.2604 C.ar      1 UNK    0.0000
      6 C6          7.9238    8.5495    1.9733 C.ar      1 UNK    0.0000
      7 C7          7.0630    7.8118    1.1821 C.ar      1 UNK    0.0000
      8 C8          7.4635    6.5900    0.6765 C.ar      1 UNK    0.0000
      9 C9          6.5243    5.7858   -0.1851 C.3       1 UNK    0.0000
     10 C10         5.7899    4.7857    0.6702 C.2       1 UNK    0.0000
     11 N11         6.0223    4.7277    1.9411 N.2       1 UNK    0.0000
     12 N12         4.8763    3.9380    0.1015 N.pl3     1 UNK    0.0000
     13 C13         4.5123    3.8946   -1.3333 C.3       1 UNK    0.0000
     14 C14         3.4178    2.8387   -1.4593 C.3       1 UNK    0.0000
     15 C15         3.4211    2.0268   -2.7150 C.2       1 UNK    0.0000
     16 O16         4.2646    2.1746   -3.5665 O.2       1 UNK    0.0000
     17 C17         2.3035    1.0046   -2.8620 C.3       1 UNK    0.0000
     18 S18         2.3065   -0.1000   -1.4196 S.3       1 UNK    0.0000
     19 C19         2.4902    1.0476   -0.0156 C.3       1 UNK    0.0000
     20 C20         1.2772    1.9367    0.0806 C.ar      1 UNK    0.0000
     21 C21         1.1360    2.7996    1.1513 C.ar      1 UNK    0.0000
     22 C22         0.0208    3.6114    1.2423 C.ar      1 UNK    0.0000
     23 C23        -0.9485    3.5672    0.2577 C.ar      1 UNK    0.0000
     24 C24        -0.8068    2.7049   -0.8135 C.ar      1 UNK    0.0000
     25 C25         0.3061    1.8897   -0.9020 C.ar      1 UNK    0.0000
     26 C26         2.6561    0.2685    1.2637 C.ar      1 UNK    0.0000
     27 C27         3.9104    0.1221    1.8260 C.ar      1 UNK    0.0000
     28 C28         4.0619   -0.5884    3.0021 C.ar      1 UNK    0.0000
     29 C29         2.9607   -1.1614    3.6102 C.ar      1 UNK    0.0000
     30 C30         1.7071   -1.0194    3.0451 C.ar      1 UNK    0.0000
     31 C31         1.5549   -0.3044    1.8718 C.ar      1 UNK    0.0000
     32 C32         3.7271    1.8892   -0.2706 C.3       1 UNK    0.0000
     33 C33         4.0835    2.9082    0.8199 C.3       1 UNK    0.0000
@<TRIPOS>BOND
     1    1    2 1
     2    2    3 1
     3    3    8 ar
     4    3    4 ar
     5    4    5 ar
     6    5    6 ar
     7    6    7 ar
     8    7    8 ar
     9    8    9 1
    10    9   10 1
    11   10   11 2
    12   10   12 1
    13   12   33 1
    14   12   13 1
    15   13   14 1
    16   14   32 1
    17   14   15 1
    18   15   16 2
    19   15   17 1
    20   17   18 1
    21   18   19 1
    22   19   20 1
    23   19   26 1
    24   19   32 1
    25   20   25 ar
    26   20   21 ar
    27   21   22 ar
    28   22   23 ar
    29   23   24 ar
    30   24   25 ar
    31   26   31 ar
    32   26   27 ar
    33   27   28 ar
    34   28   29 ar
    35   29   30 ar
    36   30   31 ar
    37   32   33 1
@<TRIPOS>SUBSTRUCTURE
     1 UNK     1 RESIDUE           4 A     UNK     0 ROOT

#	Name: CHEMBL3974323
#	Creating user name:	j2ho
#	Creation time:	10. 04. 2025 18:11
#	Modifying user name:	j2ho
#	Modification time:	10. 04. 2025 18:11
#	Program:	corina 5.0.0 0026  29.08.2023
@<TRIPOS>MOLECULE
CHEMBL3974323
32 34 1 0 0
SMALL
NO_CHARGES


@<TRIPOS>ATOM
      1 C1          1.0793    8.1556   -1.5170 C.3       1 UNK    0.0000
      2 C2          1.4874    7.1874   -0.4048 C.3       1 UNK    0.0000
      3 C3          0.2712    6.8717    0.4681 C.3       1 UNK    0.0000
      4 C4          0.6439    5.8088    1.4925 C.3       1 UNK    0.0000
      5 N6          0.8962    4.5077    0.9148 N.3       1 UNK    0.0000
      6 C7          0.6160    4.2909   -0.4895 C.3       1 UNK    0.0000
      7 C8          0.5949    2.7987   -0.7540 C.ar      1 UNK    0.0000
      8 C9          1.7558    2.1403   -1.0962 C.ar      1 UNK    0.0000
      9 C10         1.7429    0.7664   -1.2788 C.ar      1 UNK    0.0000
     10 C11         0.5660    0.0628   -1.1193 C.ar      1 UNK    0.0000
     11 C12        -0.5992    0.7260   -0.7870 C.ar      1 UNK    0.0000
     12 C13        -0.5879    2.0977   -0.6196 C.ar      1 UNK    0.0000
     13 C14        -1.8830   -0.0408   -0.5973 C.3       1 UNK    0.0000
     14 N15        -2.3389    0.1397    0.7888 N.am      1 UNK    0.0000
     15 C16        -3.0637    1.2390    1.0917 C.2       1 UNK    0.0000
     16 O17        -3.5883    1.8794    0.2028 O.2       1 UNK    0.0000
     17 C18        -3.2289    1.6813    2.5246 C.3       1 UNK    0.0000
     18 C20        -1.8887    1.5923    3.2483 C.3       1 UNK    0.0000
     19 C21        -1.4809    0.1471    3.3747 C.ar      1 UNK    0.0000
     20 C22        -2.1596   -0.6893    4.2412 C.ar      1 UNK    0.0000
     21 C23        -1.7887   -2.0162    4.3535 C.ar      1 UNK    0.0000
     22 C24        -0.7324   -2.5042    3.6071 C.ar      1 UNK    0.0000
     23 C25        -0.0504   -1.6665    2.7445 C.ar      1 UNK    0.0000
     24 C26        -0.4247   -0.3409    2.6283 C.ar      1 UNK    0.0000
     25 N27        -3.7505    3.0492    2.5312 N.am      1 UNK    0.0000
     26 C28        -3.4985    3.9369    3.4948 C.2       1 UNK    0.0000
     27 O29        -4.4233    4.1706    4.2765 O.2       1 UNK    0.0000
     28 C30        -2.2160    4.6689    3.7211 C.3       1 UNK    0.0000
     29 N31        -1.5887    5.1612    2.4916 N.am      1 UNK    0.0000
     30 C32        -2.2946    5.0944    1.2130 C.3       1 UNK    0.0000
     31 C33        -0.3660    5.7204    2.5998 C.2       1 UNK    0.0000
     32 O34        -0.0556    6.1827    3.6916 O.2       1 UNK    0.0000
@<TRIPOS>BOND
     1    1    2 1
     2    2    3 1
     3    3    4 1
     4    4   31 1
     5    4    5 1
     6    5    6 1
     7    6    7 1
     8    7   12 ar
     9    7    8 ar
    10    8    9 ar
    11    9   10 ar
    12   10   11 ar
    13   11   12 ar
    14   11   13 1
    15   13   14 1
    16   14   15 am
    17   15   16 2
    18   15   17 1
    19   17   18 1
    20   17   25 1
    21   18   19 1
    22   19   24 ar
    23   19   20 ar
    24   20   21 ar
    25   21   22 ar
    26   22   23 ar
    27   23   24 ar
    28   25   26 am
    29   26   27 2
    30   26   28 1
    31   28   29 1
    32   29   30 1
    33   29   31 am
    34   31   32 2
@<TRIPOS>SUBSTRUCTURE
     1 UNK     1 RESIDUE           4 A     UNK     0 ROOT

#	Name: CHEMBL3233665
#	Creating user name:	j2ho
#	Creation time:	10. 04. 2025 17:59
#	Modifying user name:	j2ho
#	Modification time:	10. 04. 2025 17:59
#	Program:	corina 5.0.0 0026  29.08.2023
@<TRIPOS>MOLECULE
CHEMBL3233665
33 35 1 0 0
SMALL
NO_CHARGES


@<TRIPOS>ATOM
      1 C1         -0.5375    3.8365   -5.7716 C.3       1 UNK    0.0000
      2 N2         -0.9449    2.6727   -4.9806 N.am      1 UNK    0.0000
      3 C3         -0.4902    2.4027   -3.7516 C.2       1 UNK    0.0000
      4 O4          0.3125    3.0980   -3.1604 O.2       1 UNK    0.0000
      5 N5         -1.0181    1.2739   -3.2447 N.am      1 UNK    0.0000
      6 C6         -0.7370    0.6891   -1.9313 C.3       1 UNK    0.0000
      7 C7         -1.6259    1.3519   -0.8771 C.3       1 UNK    0.0000
      8 C8         -1.4154    0.6639    0.4732 C.3       1 UNK    0.0000
      9 C9         -2.3043    1.3267    1.5274 C.3       1 UNK    0.0000
     10 C10        -2.0938    0.6387    2.8777 C.3       1 UNK    0.0000
     11 N11        -2.9472    1.2751    3.8899 N.3       1 UNK    0.0000
     12 C12        -4.3139    1.4635    3.3834 C.3       1 UNK    0.0000
     13 C13        -5.1479    2.1990    4.4350 C.3       1 UNK    0.0000
     14 N14        -5.1540    1.4222    5.6825 N.3       1 UNK    0.0000
     15 C15        -5.9655    2.0273    6.6449 C.ar      1 UNK    0.0000
     16 C16        -5.4421    2.3585    7.8883 C.ar      1 UNK    0.0000
     17 C17        -6.2461    2.9611    8.8359 C.ar      1 UNK    0.0000
     18 C18        -7.5734    3.2252    8.5518 C.ar      1 UNK    0.0000
     19 C19        -8.0990    2.8920    7.3169 C.ar      1 UNK    0.0000
     20 C20        -7.2993    2.2941    6.3629 C.ar      1 UNK    0.0000
     21 C21        -3.7874    1.2339    6.1890 C.3       1 UNK    0.0000
     22 C22        -2.9534    0.4984    5.1374 C.3       1 UNK    0.0000
     23 C23        -1.9387    0.7441   -4.2654 C.3       1 UNK    0.0000
     24 C24        -3.3699    0.6964   -3.7266 C.3       1 UNK    0.0000
     25 C25        -1.4982   -0.6243   -4.7175 C.ar      1 UNK    0.0000
     26 C26        -0.2109   -1.0566   -4.4590 C.ar      1 UNK    0.0000
     27 C27         0.1919   -2.3133   -4.8703 C.ar      1 UNK    0.0000
     28 C28        -0.6901   -3.1347   -5.5473 C.ar      1 UNK    0.0000
     29 C29        -1.9758   -2.7004   -5.8104 C.ar      1 UNK    0.0000
     30 C30        -2.3798   -1.4452   -5.3958 C.ar      1 UNK    0.0000
     31 C31        -1.8285    1.7449   -5.3986 C.2       1 UNK    0.0000
     32 O32        -2.4130    1.7162   -6.4603 O.2       1 UNK    0.0000
     33 Cl33        5.3125    8.8365   13.8359 Cl        1 UNK    0.0000
@<TRIPOS>BOND
     1    1    2 1
     2    2   31 am
     3    2    3 am
     4    3    4 2
     5    3    5 am
     6    5    6 1
     7    5   23 1
     8    6    7 1
     9    7    8 1
    10    8    9 1
    11    9   10 1
    12   10   11 1
    13   11   22 1
    14   11   12 1
    15   12   13 1
    16   13   14 1
    17   14   15 1
    18   14   21 1
    19   15   20 ar
    20   15   16 ar
    21   16   17 ar
    22   17   18 ar
    23   18   19 ar
    24   19   20 ar
    25   21   22 1
    26   23   24 1
    27   23   25 1
    28   23   31 1
    29   25   30 ar
    30   25   26 ar
    31   26   27 ar
    32   27   28 ar
    33   28   29 ar
    34   29   30 ar
    35   31   32 2
@<TRIPOS>SUBSTRUCTURE
     1 UNK     1 RESIDUE           4 A     UNK     0 ROOT

#	Name: CHEMBL4439121
#	Creating user name:	j2ho
#	Creation time:	10. 04. 2025 18:00
#	Modifying user name:	j2ho
#	Modification time:	10. 04. 2025 18:00
#	Program:	corina 5.0.0 0026  29.08.2023
@<TRIPOS>MOLECULE
CHEMBL4439121
26 29 1 0 0
SMALL
NO_CHARGES


@<TRIPOS>ATOM
      1 C1          1.2139    5.8668    0.0207 C.3       1 UNK    0.0000
      2 O2         -0.0556    5.2109    0.0298 O.3       1 UNK    0.0000
      3 C3         -0.0480    3.8518    0.0228 C.ar      1 UNK    0.0000
      4 C4          1.1586    3.1648    0.0076 C.ar      1 UNK    0.0000
      5 C5          1.1728    1.7824    0.0004 C.ar      1 UNK    0.0000
      6 C6         -0.0126    1.0758    0.0080 C.ar      1 UNK    0.0000
      7 C7         -1.2307    1.7578    0.0174 C.ar      1 UNK    0.0000
      8 C8         -2.5012    1.0053    0.0193 C.2       1 UNK    0.0000
      9 N9         -3.6848    1.5199    0.0334 N.2       1 UNK    0.0000
     10 O10        -4.7083    0.5444    0.0353 O.3       1 UNK    0.0000
     11 C11        -4.1223   -0.7052   -0.3828 C.3       1 UNK    0.0000
     12 C12        -4.7378   -1.8807    0.3789 C.3       1 UNK    0.0000
     13 N13        -6.1007   -2.1157   -0.1044 N.am      1 UNK    0.0000
     14 C14        -7.2208   -1.5052    0.3081 C.2       1 UNK    0.0000
     15 O15        -7.1869   -0.6525    1.1737 O.2       1 UNK    0.0000
     16 C16        -8.4899   -1.8952   -0.3210 C.ar      1 UNK    0.0000
     17 C17        -9.7946   -1.4257   -0.0913 C.ar      1 UNK    0.0000
     18 C18       -10.8543   -1.9437   -0.8001 C.ar      1 UNK    0.0000
     19 C19       -10.6595   -2.9315   -1.7494 C.ar      1 UNK    0.0000
     20 C20        -9.3785   -3.4065   -1.9896 C.ar      1 UNK    0.0000
     21 C21        -8.3232   -2.8950   -1.2874 C.ar      1 UNK    0.0000
     22 S22        -6.5794   -3.2054   -1.2783 S.o2      1 UNK    0.0000
     23 O23        -6.0580   -2.7525   -2.5202 O.2       1 UNK    0.0000
     24 O24        -6.3759   -4.5118   -0.7575 O.2       1 UNK    0.0000
     25 C25        -2.6394   -0.5052    0.0117 C.3       1 UNK    0.0000
     26 C26        -1.2432    3.1532    0.0305 C.ar      1 UNK    0.0000
@<TRIPOS>BOND
     1    1    2 1
     2    2    3 1
     3    3   26 ar
     4    3    4 ar
     5    4    5 ar
     6    5    6 ar
     7    6    7 ar
     8    7    8 1
     9    7   26 ar
    10    8   25 1
    11    8    9 2
    12    9   10 1
    13   10   11 1
    14   11   12 1
    15   11   25 1
    16   12   13 1
    17   13   22 am
    18   13   14 am
    19   14   15 2
    20   14   16 1
    21   16   21 ar
    22   16   17 ar
    23   17   18 ar
    24   18   19 ar
    25   19   20 ar
    26   20   21 ar
    27   21   22 1
    28   22   23 2
    29   22   24 2
@<TRIPOS>SUBSTRUCTURE
     1 UNK     1 RESIDUE           4 A     UNK     0 ROOT

#	Name: CHEMBL314637
#	Creating user name:	j2ho
#	Creation time:	10. 04. 2025 17:56
#	Modifying user name:	j2ho
#	Modification time:	10. 04. 2025 17:56
#	Program:	corina 5.0.0 0026  29.08.2023
@<TRIPOS>MOLECULE
CHEMBL314637
36 39 1 0 0
SMALL
NO_CHARGES


@<TRIPOS>ATOM
      1 C1          5.1679    1.2012   -8.6605 C.3       1 UNK    0.0000
      2 C2          5.1311    1.0001   -7.1442 C.3       1 UNK    0.0000
      3 C3          6.1438   -0.0761   -6.7478 C.3       1 UNK    0.0000
      4 N4          5.4700    2.2592   -6.4763 N.am      1 UNK    0.0000
      5 C5          5.0354    2.4951   -5.2226 C.2       1 UNK    0.0000
      6 O6          4.3622    1.6630   -4.6458 O.2       1 UNK    0.0000
      7 N7          5.3472    3.6535   -4.6081 N.am      1 UNK    0.0000
      8 C8          4.8168    3.9405   -3.3453 C.ar      1 UNK    0.0000
      9 C9          4.4821    5.2464   -3.0114 C.ar      1 UNK    0.0000
     10 C10         3.9593    5.5264   -1.7643 C.ar      1 UNK    0.0000
     11 C11         3.7690    4.5080   -0.8481 C.ar      1 UNK    0.0000
     12 C12         4.1016    3.2070   -1.1772 C.ar      1 UNK    0.0000
     13 C13         3.8930    2.1004   -0.1757 C.3       1 UNK    0.0000
     14 N14         2.5959    1.4629   -0.4155 N.am      1 UNK    0.0000
     15 C15         1.5043    1.8505    0.2687 C.2       1 UNK    0.0000
     16 O16         1.5689    2.7942    1.0278 O.2       1 UNK    0.0000
     17 C17         0.2046    1.1160    0.0935 C.3       1 UNK    0.0000
     18 O18        -0.6535    1.3822    1.2341 O.3       1 UNK    0.0000
     19 C19        -0.5463    0.5499    2.2872 C.2       1 UNK    0.0000
     20 O20         0.2427   -0.3736    2.2538 O.2       1 UNK    0.0000
     21 N21        -1.3142    0.7412    3.3782 N.am      1 UNK    0.0000
     22 C22        -1.1368   -0.0645    4.5087 C.ar      1 UNK    0.0000
     23 C23        -0.8096   -1.4061    4.3625 C.ar      1 UNK    0.0000
     24 C24        -0.6301   -2.1973    5.4803 C.ar      1 UNK    0.0000
     25 C25        -0.7862   -1.6574    6.7437 C.ar      1 UNK    0.0000
     26 C26        -1.1176   -0.3231    6.8925 C.ar      1 UNK    0.0000
     27 C27        -1.2933    0.4746    5.7788 C.ar      1 UNK    0.0000
     28 C28        -0.5009    1.5702   -1.1840 C.3       1 UNK    0.0000
     29 C29         0.5194    1.6810   -2.3201 C.3       1 UNK    0.0000
     30 C30         1.4513    0.4991   -2.3034 C.ar      1 UNK    0.0000
     31 C31         1.3047   -0.5182   -3.2261 C.ar      1 UNK    0.0000
     32 C32         2.1792   -1.5895   -3.2176 C.ar      1 UNK    0.0000
     33 C33         3.2010   -1.6468   -2.2873 C.ar      1 UNK    0.0000
     34 C34         3.3481   -0.6355   -1.3575 C.ar      1 UNK    0.0000
     35 C35         2.4680    0.4371   -1.3617 C.ar      1 UNK    0.0000
     36 C36         4.6301    2.9212   -2.4211 C.ar      1 UNK    0.0000
@<TRIPOS>BOND
     1    1    2 1
     2    2    3 1
     3    2    4 1
     4    4    5 am
     5    5    6 2
     6    5    7 am
     7    7    8 1
     8    8   36 ar
     9    8    9 ar
    10    9   10 ar
    11   10   11 ar
    12   11   12 ar
    13   12   13 1
    14   12   36 ar
    15   13   14 1
    16   14   35 1
    17   14   15 am
    18   15   16 2
    19   15   17 1
    20   17   18 1
    21   17   28 1
    22   18   19 1
    23   19   20 2
    24   19   21 am
    25   21   22 1
    26   22   27 ar
    27   22   23 ar
    28   23   24 ar
    29   24   25 ar
    30   25   26 ar
    31   26   27 ar
    32   28   29 1
    33   29   30 1
    34   30   35 ar
    35   30   31 ar
    36   31   32 ar
    37   32   33 ar
    38   33   34 ar
    39   34   35 ar
@<TRIPOS>SUBSTRUCTURE
     1 UNK     1 RESIDUE           4 A     UNK     0 ROOT

#	Name: CHEMBL198097
#	Creating user name:	j2ho
#	Creation time:	10. 04. 2025 17:57
#	Modifying user name:	j2ho
#	Modification time:	10. 04. 2025 17:57
#	Program:	corina 5.0.0 0026  29.08.2023
@<TRIPOS>MOLECULE
CHEMBL198097
31 34 1 0 0
SMALL
NO_CHARGES


@<TRIPOS>ATOM
      1 C1         -9.1887   -1.6959   -4.1342 C.3       1 UNK    0.0000
      2 O2         -8.0094   -1.0433   -4.6090 O.3       1 UNK    0.0000
      3 C3         -7.0927   -0.6683   -3.6759 C.ar      1 UNK    0.0000
      4 C4         -7.3253   -0.9243   -2.3342 C.ar      1 UNK    0.0000
      5 C5         -6.3924   -0.5495   -1.3860 C.ar      1 UNK    0.0000
      6 C6         -5.2254    0.0945   -1.7747 C.ar      1 UNK    0.0000
      7 N7         -4.2833    0.4790   -0.8113 N.am      1 UNK    0.0000
      8 C8         -2.9591    1.0518   -1.0956 C.3       1 UNK    0.0000
      9 C9         -2.3527    1.2908    0.3009 C.3       1 UNK    0.0000
     10 N10        -3.3959    0.8187    1.2235 N.am      1 UNK    0.0000
     11 C11        -3.3082    0.8286    2.6206 C.ar      1 UNK    0.0000
     12 C12        -2.7857   -0.2685    3.2927 C.ar      1 UNK    0.0000
     13 C13        -2.7050   -0.2586    4.6715 C.ar      1 UNK    0.0000
     14 C14        -3.1393    0.8441    5.3838 C.ar      1 UNK    0.0000
     15 C15        -3.6554    1.9420    4.7181 C.ar      1 UNK    0.0000
     16 Cl16       -4.1994    3.3243    5.6162 Cl        1 UNK    0.0000
     17 C17        -3.7383    1.9383    3.3372 C.ar      1 UNK    0.0000
     18 Cl18       -4.3856    3.3153    2.5015 Cl        1 UNK    0.0000
     19 C19        -4.4458    0.3831    0.5148 C.2       1 UNK    0.0000
     20 O20        -5.4552   -0.0591    1.0288 O.2       1 UNK    0.0000
     21 C21        -4.9893    0.3525   -3.1180 C.ar      1 UNK    0.0000
     22 C22        -5.9215   -0.0281   -4.0691 C.ar      1 UNK    0.0000
     23 O23        -5.6925    0.2239   -5.3856 O.3       1 UNK    0.0000
     24 C24        -4.4695    0.8848   -5.7165 C.3       1 UNK    0.0000
     25 C25        -4.3894    1.0808   -7.2318 C.3       1 UNK    0.0000
     26 N26        -5.4893    1.9495   -7.6719 N.3       1 UNK    0.0000
     27 C27        -5.5263    3.1902   -6.8873 C.3       1 UNK    0.0000
     28 C28        -6.7655    4.0017   -7.2717 C.3       1 UNK    0.0000
     29 C29        -6.7150    4.3233   -8.7679 C.3       1 UNK    0.0000
     30 C30        -6.6282    3.0160   -9.5603 C.3       1 UNK    0.0000
     31 C31        -5.3929    2.2331   -9.1095 C.3       1 UNK    0.0000
@<TRIPOS>BOND
     1    1    2 1
     2    2    3 1
     3    3   22 ar
     4    3    4 ar
     5    4    5 ar
     6    5    6 ar
     7    6    7 1
     8    6   21 ar
     9    7   19 am
    10    7    8 1
    11    8    9 1
    12    9   10 1
    13   10   11 1
    14   10   19 am
    15   11   17 ar
    16   11   12 ar
    17   12   13 ar
    18   13   14 ar
    19   14   15 ar
    20   15   16 1
    21   15   17 ar
    22   17   18 1
    23   19   20 2
    24   21   22 ar
    25   22   23 1
    26   23   24 1
    27   24   25 1
    28   25   26 1
    29   26   31 1
    30   26   27 1
    31   27   28 1
    32   28   29 1
    33   29   30 1
    34   30   31 1
@<TRIPOS>SUBSTRUCTURE
     1 UNK     1 RESIDUE           4 A     UNK     0 ROOT

#	Name: CHEMBL3938842
#	Creating user name:	j2ho
#	Creation time:	10. 04. 2025 18:12
#	Modifying user name:	j2ho
#	Modification time:	10. 04. 2025 18:12
#	Program:	corina 5.0.0 0026  29.08.2023
@<TRIPOS>MOLECULE
CHEMBL3938842
33 37 1 0 0
SMALL
NO_CHARGES


@<TRIPOS>ATOM
      1 C1         -3.3742    1.5903    5.6136 C.3       1 UNK    0.0000
      2 C2         -2.6780    0.9295    4.4519 C.ar      1 UNK    0.0000
      3 C3         -1.5594    0.1501    4.6747 C.ar      1 UNK    0.0000
      4 C4         -0.9145   -0.4610    3.6099 C.ar      1 UNK    0.0000
      5 N5          0.2179   -1.2501    3.8342 N.pl3     1 UNK    0.0000
      6 N6          0.9494   -1.7582    2.9066 N.2       1 UNK    0.0000
      7 C7          1.9273   -2.4357    3.4642 C.2       1 UNK    0.0000
      8 C8          1.7381   -2.3149    4.8441 C.2       1 UNK    0.0000
      9 N9          0.6660   -1.5707    4.9961 N.2       1 UNK    0.0000
     10 C10        -1.4024   -0.2840    2.3074 C.ar      1 UNK    0.0000
     11 C11        -0.7234   -0.9296    1.1663 C.2       1 UNK    0.0000
     12 O12        -0.6247   -2.1406    1.1236 O.2       1 UNK    0.0000
     13 N13        -0.2129   -0.1764    0.1720 N.am      1 UNK    0.0000
     14 C14        -0.4238    1.2796    0.1398 C.3       1 UNK    0.0000
     15 C15         0.9352    1.9607   -0.0579 C.3       1 UNK    0.0000
     16 O16         1.5876    1.3885   -1.1940 O.3       1 UNK    0.0000
     17 C17         1.8827   -0.0039   -1.0597 C.3       1 UNK    0.0000
     18 C18         0.5722   -0.7857   -0.9133 C.3       1 UNK    0.0000
     19 C20         0.8783   -2.2452   -0.5711 C.3       1 UNK    0.0000
     20 C21         1.7359   -2.8460   -1.6550 C.ar      1 UNK    0.0000
     21 C22         3.1104   -2.8842   -1.5067 C.ar      1 UNK    0.0000
     22 C23         3.9005   -3.4342   -2.4990 C.ar      1 UNK    0.0000
     23 C24         3.3187   -3.9481   -3.6417 C.ar      1 UNK    0.0000
     24 C25         1.9394   -3.9116   -3.7932 C.ar      1 UNK    0.0000
     25 N26         1.3459   -4.4324   -4.9518 N.pl3     1 UNK    0.0000
     26 N27         0.0779   -4.5349   -5.1401 N.2       1 UNK    0.0000
     27 C28        -0.1313   -5.0592   -6.3269 C.2       1 UNK    0.0000
     28 C29         1.1347   -5.2886   -6.8723 C.2       1 UNK    0.0000
     29 N30         1.9956   -4.8777   -5.9683 N.2       1 UNK    0.0000
     30 C31         1.1481   -3.3629   -2.7927 C.ar      1 UNK    0.0000
     31 C32        -2.5300    0.5104    2.0948 C.ar      1 UNK    0.0000
     32 C33        -3.1637    1.1066    3.1664 C.ar      1 UNK    0.0000
     33 Cl34       -4.5708    2.0883    2.9015 Cl        1 UNK    0.0000
@<TRIPOS>BOND
     1    1    2 1
     2    2   32 ar
     3    2    3 ar
     4    3    4 ar
     5    4    5 1
     6    4   10 ar
     7    5    9 1
     8    5    6 1
     9    6    7 2
    10    7    8 1
    11    8    9 2
    12   10   11 1
    13   10   31 ar
    14   11   12 2
    15   11   13 am
    16   13   18 1
    17   13   14 1
    18   14   15 1
    19   15   16 1
    20   16   17 1
    21   17   18 1
    22   18   19 1
    23   19   20 1
    24   20   30 ar
    25   20   21 ar
    26   21   22 ar
    27   22   23 ar
    28   23   24 ar
    29   24   25 1
    30   24   30 ar
    31   25   29 1
    32   25   26 1
    33   26   27 2
    34   27   28 1
    35   28   29 2
    36   31   32 ar
    37   32   33 1
@<TRIPOS>SUBSTRUCTURE
     1 UNK     1 RESIDUE           4 A     UNK     0 ROOT

#	Name: CHEMBL3925158
#	Creating user name:	j2ho
#	Creation time:	10. 04. 2025 18:09
#	Modifying user name:	j2ho
#	Modification time:	10. 04. 2025 18:09
#	Program:	corina 5.0.0 0026  29.08.2023
@<TRIPOS>MOLECULE
CHEMBL3925158
32 35 1 0 0
SMALL
NO_CHARGES


@<TRIPOS>ATOM
      1 C1         -6.7818   15.3901    1.8767 C.3       1 UNK    0.0000
      2 C2         -5.7647   16.2893    1.1711 C.3       1 UNK    0.0000
      3 C3         -4.4507   15.5616    1.0484 C.2       1 UNK    0.0000
      4 O4         -4.3388   14.4346    1.4827 O.2       1 UNK    0.0000
      5 N5         -3.4000   16.1630    0.4562 N.am      1 UNK    0.0000
      6 C6         -2.1513   15.5286    0.4333 C.ar      1 UNK    0.0000
      7 C7         -2.0846   14.1546    0.3594 C.ar      1 UNK    0.0000
      8 C8         -0.8351   13.5245    0.3312 C.ar      1 UNK    0.0000
      9 C9         -0.7088   12.1163    0.2630 C.ar      1 UNK    0.0000
     10 N10        -1.8251   11.3067    0.2091 N.pl3     1 UNK    0.0000
     11 C11        -1.6831    9.9147    0.2535 C.ar      1 UNK    0.0000
     12 C12        -0.6483    9.3449    0.9836 C.ar      1 UNK    0.0000
     13 C13        -0.5092    7.9717    1.0273 C.ar      1 UNK    0.0000
     14 C14        -1.4027    7.1615    0.3421 C.ar      1 UNK    0.0000
     15 O15        -1.2648    5.8094    0.3853 O.3       1 UNK    0.0000
     16 C16        -2.2203    5.0362   -0.3435 C.3       1 UNK    0.0000
     17 C17        -1.9103    3.5705   -0.1799 C.ar      1 UNK    0.0000
     18 C18        -0.8299    3.1826    0.5901 C.ar      1 UNK    0.0000
     19 C19        -0.5560    1.8317    0.7378 C.ar      1 UNK    0.0000
     20 C20        -1.3769    0.9177    0.0945 C.ar      1 UNK    0.0000
     21 C21        -2.4392    1.3801   -0.6585 C.ar      1 UNK    0.0000
     22 N22        -2.6726    2.6730   -0.7732 N.ar      1 UNK    0.0000
     23 C23        -2.4335    7.7301   -0.3917 C.ar      1 UNK    0.0000
     24 C24        -2.5772    9.1029   -0.4322 C.ar      1 UNK    0.0000
     25 N25         0.5114   11.5957    0.2468 N.ar      1 UNK    0.0000
     26 C26         1.5902   12.3607    0.2980 C.ar      1 UNK    0.0000
     27 N27         1.5342   13.6693    0.3680 N.ar      1 UNK    0.0000
     28 C28         0.3494   14.3001    0.3905 C.ar      1 UNK    0.0000
     29 C29         0.2587   15.6952    0.4654 C.ar      1 UNK    0.0000
     30 C30        -0.9790   16.2979    0.4863 C.ar      1 UNK    0.0000
     31 O31        -1.0661   17.6515    0.5594 O.3       1 UNK    0.0000
     32 C32         0.1628   18.3789    0.6111 C.3       1 UNK    0.0000
@<TRIPOS>BOND
     1    1    2 1
     2    2    3 1
     3    3    4 2
     4    3    5 am
     5    5    6 1
     6    6   30 ar
     7    6    7 ar
     8    7    8 ar
     9    8   28 ar
    10    8    9 ar
    11    9   10 1
    12    9   25 ar
    13   10   11 1
    14   11   24 ar
    15   11   12 ar
    16   12   13 ar
    17   13   14 ar
    18   14   15 1
    19   14   23 ar
    20   15   16 1
    21   16   17 1
    22   17   22 ar
    23   17   18 ar
    24   18   19 ar
    25   19   20 ar
    26   20   21 ar
    27   21   22 ar
    28   23   24 ar
    29   25   26 ar
    30   26   27 ar
    31   27   28 ar
    32   28   29 ar
    33   29   30 ar
    34   30   31 1
    35   31   32 1
@<TRIPOS>SUBSTRUCTURE
     1 UNK     1 RESIDUE           4 A     UNK     0 ROOT

#	Name: CHEMBL230088
#	Creating user name:	j2ho
#	Creation time:	10. 04. 2025 18:02
#	Modifying user name:	j2ho
#	Modification time:	10. 04. 2025 18:02
#	Program:	corina 5.0.0 0026  29.08.2023
@<TRIPOS>MOLECULE
CHEMBL230088
29 31 1 0 0
SMALL
NO_CHARGES


@<TRIPOS>ATOM
      1 C1         -5.9235    5.3417   -0.7765 C.3       1 UNK    0.0000
      2 N2         -4.7078    6.0737   -0.4125 N.am      1 UNK    0.0000
      3 C3         -4.7415    7.5328   -0.2863 C.3       1 UNK    0.0000
      4 C4         -3.5585    5.4047   -0.1935 C.2       1 UNK    0.0000
      5 O5         -3.5272    4.1949   -0.3118 O.2       1 UNK    0.0000
      6 C6         -2.3383    6.1403    0.1896 C.ar      1 UNK    0.0000
      7 C7         -2.0150    7.3425   -0.4446 C.ar      1 UNK    0.0000
      8 C8         -0.8703    8.0265   -0.0802 C.ar      1 UNK    0.0000
      9 O9         -0.5546    9.1968   -0.6967 O.3       1 UNK    0.0000
     10 C10         0.6423    9.8517   -0.2715 C.3       1 UNK    0.0000
     11 C11         0.8298   11.1418   -1.0724 C.3       1 UNK    0.0000
     12 C12         2.0501   11.8978   -0.5432 C.3       1 UNK    0.0000
     13 C13         1.7775   12.3957    0.8918 C.3       1 UNK    0.0000
     14 C14         2.4507   13.7962    0.9068 C.3       1 UNK    0.0000
     15 C15         2.1796   14.2918   -0.5356 C.3       1 UNK    0.0000
     16 N16         2.3065   13.0846   -1.3797 N.3       1 UNK    0.0000
     17 C17         1.3782   13.1376   -2.5170 C.3       1 UNK    0.0000
     18 C18        -0.0417    7.5219    0.9147 C.ar      1 UNK    0.0000
     19 C19        -0.3565    6.3376    1.5500 C.ar      1 UNK    0.0000
     20 C20        -1.4983    5.6370    1.1914 C.ar      1 UNK    0.0000
     21 O21        -1.8040    4.4698    1.8131 O.3       1 UNK    0.0000
     22 C22        -0.9015    4.0178    2.8247 C.3       1 UNK    0.0000
     23 C23        -1.4007    2.7167    3.3983 C.ar      1 UNK    0.0000
     24 C24        -2.5718    2.1561    2.9237 C.ar      1 UNK    0.0000
     25 C25        -3.0294    0.9625    3.4494 C.ar      1 UNK    0.0000
     26 C26        -2.3167    0.3288    4.4504 C.ar      1 UNK    0.0000
     27 C27        -1.1461    0.8885    4.9260 C.ar      1 UNK    0.0000
     28 C28        -0.6871    2.0832    4.3998 C.ar      1 UNK    0.0000
     29 Cl29        0.7830    2.7873    4.9971 Cl        1 UNK    0.0000
@<TRIPOS>BOND
     1    1    2 1
     2    2    3 1
     3    2    4 am
     4    4    5 2
     5    4    6 1
     6    6   20 ar
     7    6    7 ar
     8    7    8 ar
     9    8    9 1
    10    8   18 ar
    11    9   10 1
    12   10   11 1
    13   11   12 1
    14   12   16 1
    15   12   13 1
    16   13   14 1
    17   14   15 1
    18   15   16 1
    19   16   17 1
    20   18   19 ar
    21   19   20 ar
    22   20   21 1
    23   21   22 1
    24   22   23 1
    25   23   28 ar
    26   23   24 ar
    27   24   25 ar
    28   25   26 ar
    29   26   27 ar
    30   27   28 ar
    31   28   29 1
@<TRIPOS>SUBSTRUCTURE
     1 UNK     1 RESIDUE           4 A     UNK     0 ROOT

#	Name: CHEMBL3775563
#	Creating user name:	j2ho
#	Creation time:	10. 04. 2025 18:14
#	Modifying user name:	j2ho
#	Modification time:	10. 04. 2025 18:14
#	Program:	corina 5.0.0 0026  29.08.2023
@<TRIPOS>MOLECULE
CHEMBL3775563
28 30 1 0 0
SMALL
NO_CHARGES


@<TRIPOS>ATOM
      1 C1         -0.9584    9.8725    2.4358 C.3       1 UNK    0.0000
      2 O2         -0.5276    8.7595    3.2218 O.3       1 UNK    0.0000
      3 C3         -0.3600    7.5758    2.5755 C.ar      1 UNK    0.0000
      4 C4          0.0565    6.4539    3.2773 C.ar      1 UNK    0.0000
      5 C5          0.2267    5.2520    2.6180 C.ar      1 UNK    0.0000
      6 C6         -0.0174    5.1666    1.2597 C.ar      1 UNK    0.0000
      7 C7          0.1695    3.8543    0.5429 C.3       1 UNK    0.0000
      8 C8         -1.1228    3.0794    0.5685 C.2       1 UNK    0.0000
      9 O9         -2.0995    3.5469    1.1150 O.2       1 UNK    0.0000
     10 N10        -1.1917    1.8646   -0.0112 N.am      1 UNK    0.0000
     11 C11        -2.3631    1.1030    0.0953 C.ar      1 UNK    0.0000
     12 C12        -2.2843   -0.2812    0.1918 C.ar      1 UNK    0.0000
     13 C13        -3.4345   -1.0374    0.3027 C.ar      1 UNK    0.0000
     14 C14        -4.6754   -0.4201    0.3069 C.ar      1 UNK    0.0000
     15 O15        -5.8063   -1.1662    0.4100 O.3       1 UNK    0.0000
     16 C16        -4.7617    0.9717    0.2043 C.ar      1 UNK    0.0000
     17 C17        -6.0864    1.6373    0.2087 C.ar      1 UNK    0.0000
     18 C18        -6.3878    2.5805   -0.7720 C.ar      1 UNK    0.0000
     19 C19        -7.6401    3.1969   -0.7529 C.ar      1 UNK    0.0000
     20 C20        -8.0063    4.2054   -1.7731 C.2       1 UNK    0.0000
     21 O21        -7.2128    4.5062   -2.6417 O.2       1 UNK    0.0000
     22 O22        -9.2194    4.7891   -1.7379 O.3       1 UNK    0.0000
     23 C23        -8.5405    2.8367    0.2570 C.ar      1 UNK    0.0000
     24 C24        -8.1627    1.8921    1.1916 C.ar      1 UNK    0.0000
     25 N25        -6.9747    1.3252    1.1426 N.ar      1 UNK    0.0000
     26 C26        -3.5983    1.7307    0.0984 C.ar      1 UNK    0.0000
     27 C27        -0.4271    6.2847    0.5570 C.ar      1 UNK    0.0000
     28 C28        -0.6046    7.4875    1.2128 C.ar      1 UNK    0.0000
@<TRIPOS>BOND
     1    1    2 1
     2    2    3 1
     3    3   28 ar
     4    3    4 ar
     5    4    5 ar
     6    5    6 ar
     7    6    7 1
     8    6   27 ar
     9    7    8 1
    10    8    9 2
    11    8   10 am
    12   10   11 1
    13   11   26 ar
    14   11   12 ar
    15   12   13 ar
    16   13   14 ar
    17   14   15 1
    18   14   16 ar
    19   16   17 1
    20   16   26 ar
    21   17   25 ar
    22   17   18 ar
    23   18   19 ar
    24   19   20 1
    25   19   23 ar
    26   20   21 2
    27   20   22 1
    28   23   24 ar
    29   24   25 ar
    30   27   28 ar
@<TRIPOS>SUBSTRUCTURE
     1 UNK     1 RESIDUE           4 A     UNK     0 ROOT

#	Name: CHEMBL4782278
#	Creating user name:	j2ho
#	Creation time:	10. 04. 2025 18:04
#	Modifying user name:	j2ho
#	Modification time:	10. 04. 2025 18:04
#	Program:	corina 5.0.0 0026  29.08.2023
@<TRIPOS>MOLECULE
CHEMBL4782278
28 30 1 0 0
SMALL
NO_CHARGES


@<TRIPOS>ATOM
      1 C1         -6.7299    4.2578    7.6637 C.3       1 UNK    0.0000
      2 O2         -5.9206    3.0816    7.7236 O.3       1 UNK    0.0000
      3 C3         -4.6165    3.2095    7.3561 C.2       1 UNK    0.0000
      4 C4         -4.2468    3.0255    6.0665 C.2       1 UNK    0.0000
      5 C5         -5.2874    2.6767    5.0337 C.3       1 UNK    0.0000
      6 N6         -2.9432    3.1474    5.6959 N.pl3     1 UNK    0.0000
      7 C7         -2.5903    2.9464    4.3562 C.ar      1 UNK    0.0000
      8 C8         -1.8121    3.8863    3.6930 C.ar      1 UNK    0.0000
      9 C9         -1.4661    3.6852    2.3712 C.ar      1 UNK    0.0000
     10 C10        -1.8936    2.5496    1.7080 C.ar      1 UNK    0.0000
     11 S11        -1.4505    2.2971    0.0215 S.o2      1 UNK    0.0000
     12 O12        -1.1734    3.5825   -0.5173 O.2       1 UNK    0.0000
     13 O13        -2.4270    1.4202   -0.5231 O.2       1 UNK    0.0000
     14 N14        -0.0179    1.4666    0.0101 N.am      1 UNK    0.0000
     15 C15         1.2683    2.1800    0.0017 C.3       1 UNK    0.0000
     16 C16         2.1249    1.6258   -1.1417 C.3       1 UNK    0.0000
     17 N17         2.2251    0.1660   -1.0110 N.3       1 UNK    0.0000
     18 C18         3.1764   -0.3856   -1.9851 C.3       1 UNK    0.0000
     19 C19         4.4947    0.3867   -1.9041 C.3       1 UNK    0.0000
     20 C20         3.4297   -1.8614   -1.6710 C.3       1 UNK    0.0000
     21 C21         0.9085   -0.4723   -1.1414 C.3       1 UNK    0.0000
     22 C22         0.0021   -0.0041    0.0020 C.3       1 UNK    0.0000
     23 C23        -2.6731    1.6144    2.3640 C.ar      1 UNK    0.0000
     24 C24        -3.0181    1.8069    3.6874 C.ar      1 UNK    0.0000
     25 C25        -1.9787    3.4652    6.5960 C.2       1 UNK    0.0000
     26 C26        -2.2861    3.6657    7.8969 C.2       1 UNK    0.0000
     27 C27        -3.6291    3.5421    8.3182 C.2       1 UNK    0.0000
     28 O28        -3.9339    3.7180    9.4894 O.2       1 UNK    0.0000
@<TRIPOS>BOND
     1    1    2 1
     2    2    3 1
     3    3   27 1
     4    3    4 2
     5    4    5 1
     6    4    6 1
     7    6    7 1
     8    6   25 1
     9    7   24 ar
    10    7    8 ar
    11    8    9 ar
    12    9   10 ar
    13   10   11 1
    14   10   23 ar
    15   11   12 2
    16   11   13 2
    17   11   14 am
    18   14   22 1
    19   14   15 1
    20   15   16 1
    21   16   17 1
    22   17   18 1
    23   17   21 1
    24   18   19 1
    25   18   20 1
    26   21   22 1
    27   23   24 ar
    28   25   26 2
    29   26   27 1
    30   27   28 2
@<TRIPOS>SUBSTRUCTURE
     1 UNK     1 RESIDUE           4 A     UNK     0 ROOT

#	Name: CHEMBL5169516
#	Creating user name:	j2ho
#	Creation time:	10. 04. 2025 18:11
#	Modifying user name:	j2ho
#	Modification time:	10. 04. 2025 18:11
#	Program:	corina 5.0.0 0026  29.08.2023
@<TRIPOS>MOLECULE
CHEMBL5169516
34 35 1 0 0
SMALL
NO_CHARGES


@<TRIPOS>ATOM
      1 C1          0.0885   -1.8421   -4.6298 C.3       1 UNK    0.0000
      2 C2          0.4009   -0.3872   -4.9855 C.3       1 UNK    0.0000
      3 C3         -0.0341   -0.1096   -6.4258 C.3       1 UNK    0.0000
      4 C4          1.9048   -0.1408   -4.8504 C.3       1 UNK    0.0000
      5 O5         -0.3172    0.4963   -4.0842 O.3       1 UNK    0.0000
      6 C6         -0.0713    0.3589   -2.7718 C.2       1 UNK    0.0000
      7 O7          0.7768   -0.4142   -2.3938 O.2       1 UNK    0.0000
      8 C8         -0.8529    1.1690   -1.7699 C.3       1 UNK    0.0000
      9 C9         -0.4069    0.7973   -0.3544 C.3       1 UNK    0.0000
     10 C11        -1.2958    1.5130    0.6648 C.3       1 UNK    0.0000
     11 C12        -2.7006    0.9755    0.5711 C.ar      1 UNK    0.0000
     12 C13        -3.6493    1.6476   -0.1767 C.ar      1 UNK    0.0000
     13 C14        -4.9366    1.1520   -0.2666 C.ar      1 UNK    0.0000
     14 C15        -5.2780   -0.0100    0.3998 C.ar      1 UNK    0.0000
     15 C16        -4.3307   -0.6792    1.1519 C.ar      1 UNK    0.0000
     16 C17        -3.0420   -0.1865    1.2375 C.ar      1 UNK    0.0000
     17 C18         1.0264    1.2168   -0.1529 C.2       1 UNK    0.0000
     18 O19         1.4644    2.1738   -0.7450 O.2       1 UNK    0.0000
     19 C20         1.9132    0.4420    0.7875 C.3       1 UNK    0.0000
     20 C21         3.3075    1.0716    0.8087 C.3       1 UNK    0.0000
     21 C22         4.1943    0.2967    1.7491 C.2       1 UNK    0.0000
     22 O23         3.7544   -0.6644    2.3438 O.2       1 UNK    0.0000
     23 N24         5.4762    0.6719    1.9293 N.am      1 UNK    0.0000
     24 C25         6.3382   -0.0814    2.8435 C.3       1 UNK    0.0000
     25 C26         7.7116    0.5388    2.8644 C.ar      1 UNK    0.0000
     26 C27         8.6783    0.1075    1.9753 C.ar      1 UNK    0.0000
     27 C28         9.9365    0.6797    1.9913 C.ar      1 UNK    0.0000
     28 C29        10.2313    1.6759    2.9033 C.ar      1 UNK    0.0000
     29 S30        11.8373    2.4002    2.9285 S.o2      1 UNK    0.0000
     30 N31        12.7608    1.5085    3.9746 N.am      1 UNK    0.0000
     31 O32        12.3888    2.1984    1.6345 O.2       1 UNK    0.0000
     32 O33        11.6892    3.6843    3.5186 O.2       1 UNK    0.0000
     33 C34         9.2662    2.1034    3.7959 C.ar      1 UNK    0.0000
     34 C35         8.0063    1.5349    3.7764 C.ar      1 UNK    0.0000
@<TRIPOS>BOND
     1    1    2 1
     2    2    3 1
     3    2    4 1
     4    2    5 1
     5    5    6 1
     6    6    7 2
     7    6    8 1
     8    8    9 1
     9    9   10 1
    10    9   17 1
    11   10   11 1
    12   11   16 ar
    13   11   12 ar
    14   12   13 ar
    15   13   14 ar
    16   14   15 ar
    17   15   16 ar
    18   17   18 2
    19   17   19 1
    20   19   20 1
    21   20   21 1
    22   21   22 2
    23   21   23 am
    24   23   24 1
    25   24   25 1
    26   25   34 ar
    27   25   26 ar
    28   26   27 ar
    29   27   28 ar
    30   28   29 1
    31   28   33 ar
    32   29   30 am
    33   29   31 2
    34   29   32 2
    35   33   34 ar
@<TRIPOS>SUBSTRUCTURE
     1 UNK     1 RESIDUE           4 A     UNK     0 ROOT

#	Name: CHEMBL1332279
#	Creating user name:	j2ho
#	Creation time:	10. 04. 2025 18:11
#	Modifying user name:	j2ho
#	Modification time:	10. 04. 2025 18:11
#	Program:	corina 5.0.0 0026  29.08.2023
@<TRIPOS>MOLECULE
CHEMBL1332279
32 35 1 0 0
SMALL
NO_CHARGES


@<TRIPOS>ATOM
      1 C1          7.0174    1.5392   11.9256 C.3       1 UNK    0.0000
      2 C2          5.8829    1.4076   10.9424 C.ar      1 UNK    0.0000
      3 C3          5.6481    0.1963   10.3179 C.ar      1 UNK    0.0000
      4 C4          4.6092    0.0725    9.4164 C.ar      1 UNK    0.0000
      5 C5          3.7999    1.1659    9.1374 C.ar      1 UNK    0.0000
      6 N6          2.7455    1.0437    8.2231 N.pl3     1 UNK    0.0000
      7 N7          2.4593    1.9246    7.3305 N.2       1 UNK    0.0000
      8 C8          1.4272    1.5465    6.6177 C.2       1 UNK    0.0000
      9 C9          0.6502    2.0831    5.4943 C.2       1 UNK    0.0000
     10 O10         0.9355    3.1589    4.9997 O.2       1 UNK    0.0000
     11 N11        -0.3892    1.3634    5.0233 N.am      1 UNK    0.0000
     12 C12        -1.1670    1.9021    3.9048 C.3       1 UNK    0.0000
     13 C13        -0.5626    1.4399    2.6039 C.2       1 UNK    0.0000
     14 O14         0.4211    0.7305    2.6105 O.2       1 UNK    0.0000
     15 N15        -1.1151    1.8150    1.4333 N.am      1 UNK    0.0000
     16 C16        -0.5275    1.3658    0.1687 C.3       1 UNK    0.0000
     17 C17        -1.3398    1.9283   -0.9995 C.3       1 UNK    0.0000
     18 C18        -0.7354    1.4662   -2.3003 C.ar      1 UNK    0.0000
     19 C19         0.1660    2.2734   -2.9690 C.ar      1 UNK    0.0000
     20 C20         0.7207    1.8494   -4.1619 C.ar      1 UNK    0.0000
     21 C21         0.3737    0.6182   -4.6865 C.ar      1 UNK    0.0000
     22 C22        -0.5274   -0.1888   -4.0180 C.ar      1 UNK    0.0000
     23 C23        -1.0779    0.2329   -2.8219 C.ar      1 UNK    0.0000
     24 C24        -2.0557   -0.6496   -2.0898 C.3       1 UNK    0.0000
     25 N25        -0.7497    0.1266    5.5531 N.2       1 UNK    0.0000
     26 C26        -0.1248   -0.4368    6.5431 C.2       1 UNK    0.0000
     27 C27        -0.5783   -1.7786    7.0579 C.3       1 UNK    0.0000
     28 C28         1.0191    0.2346    7.1553 C.2       1 UNK    0.0000
     29 C29         1.9069   -0.0127    8.1720 C.2       1 UNK    0.0000
     30 C30         1.9394   -1.2294    9.0605 C.3       1 UNK    0.0000
     31 C31         4.0415    2.3823    9.7622 C.ar      1 UNK    0.0000
     32 C32         5.0791    2.4984   10.6664 C.ar      1 UNK    0.0000
@<TRIPOS>BOND
     1    1    2 1
     2    2   32 ar
     3    2    3 ar
     4    3    4 ar
     5    4    5 ar
     6    5    6 1
     7    5   31 ar
     8    6   29 1
     9    6    7 1
    10    7    8 2
    11    8   28 1
    12    8    9 1
    13    9   10 2
    14    9   11 am
    15   11   12 1
    16   11   25 1
    17   12   13 1
    18   13   14 2
    19   13   15 am
    20   15   16 1
    21   16   17 1
    22   17   18 1
    23   18   23 ar
    24   18   19 ar
    25   19   20 ar
    26   20   21 ar
    27   21   22 ar
    28   22   23 ar
    29   23   24 1
    30   25   26 2
    31   26   27 1
    32   26   28 1
    33   28   29 2
    34   29   30 1
    35   31   32 ar
@<TRIPOS>SUBSTRUCTURE
     1 UNK     1 RESIDUE           4 A     UNK     0 ROOT

#	Name: CHEMBL3120317
#	Creating user name:	j2ho
#	Creation time:	10. 04. 2025 18:06
#	Modifying user name:	j2ho
#	Modification time:	10. 04. 2025 18:06
#	Program:	corina 5.0.0 0026  29.08.2023
@<TRIPOS>MOLECULE
CHEMBL3120317
31 34 1 0 0
SMALL
NO_CHARGES


@<TRIPOS>ATOM
      1 C1          1.4950    5.9758    1.0199 C.3       1 UNK    0.0000
      2 C2          2.3708    4.7329    1.1907 C.3       1 UNK    0.0000
      3 C3          2.2186    3.8416   -0.0149 C.2       1 UNK    0.0000
      4 C4          3.1109    3.9202   -1.0333 C.2       1 UNK    0.0000
      5 C5          4.3595    4.6883   -0.8494 C.ar      1 UNK    0.0000
      6 C6          4.3498    6.0449   -0.5440 C.ar      1 UNK    0.0000
      7 C7          5.5525    6.7028   -0.3653 C.ar      1 UNK    0.0000
      8 C8          6.7468    6.0136   -0.4886 C.ar      1 UNK    0.0000
      9 C9          6.7567    4.6662   -0.7994 C.ar      1 UNK    0.0000
     10 C10         5.5557    3.9974   -0.9901 C.ar      1 UNK    0.0000
     11 O11         5.5366    2.6968   -1.3441 O.3       1 UNK    0.0000
     12 C12         5.2047    2.3138   -2.6543 C.3       1 UNK    0.0000
     13 C13         3.7602    2.5176   -3.0280 C.ar      1 UNK    0.0000
     14 C14         3.3665    1.9097   -4.2205 C.ar      1 UNK    0.0000
     15 C15         2.0757    2.0144   -4.6896 C.ar      1 UNK    0.0000
     16 C16         1.1342    2.7340   -3.9772 C.ar      1 UNK    0.0000
     17 C17         1.5005    3.3430   -2.7932 C.ar      1 UNK    0.0000
     18 O18         0.5808    4.0512   -2.0879 O.3       1 UNK    0.0000
     19 C19        -0.7392    4.1218   -2.6307 C.3       1 UNK    0.0000
     20 C20         2.8228    3.2315   -2.3083 C.ar      1 UNK    0.0000
     21 C21         1.1027    2.8866   -0.0872 C.ar      1 UNK    0.0000
     22 C22        -0.2108    3.3238    0.1180 C.ar      1 UNK    0.0000
     23 C23        -1.2546    2.4253    0.0490 C.ar      1 UNK    0.0000
     24 C24        -1.0088    1.0906   -0.2169 C.ar      1 UNK    0.0000
     25 C25         0.2915    0.6457   -0.4281 C.ar      1 UNK    0.0000
     26 N26         0.5323   -0.7030   -0.7015 N.am      1 UNK    0.0000
     27 S27        -0.2095   -1.8762    0.2017 S.o2      1 UNK    0.0000
     28 C28         0.3851   -1.5901    1.8914 C.3       1 UNK    0.0000
     29 O29        -1.5940   -1.5721    0.1021 O.2       1 UNK    0.0000
     30 O30         0.3117   -3.0948   -0.3107 O.2       1 UNK    0.0000
     31 C31         1.3494    1.5385   -0.3615 C.ar      1 UNK    0.0000
@<TRIPOS>BOND
     1    1    2 1
     2    2    3 1
     3    3    4 2
     4    3   21 1
     5    4   20 1
     6    4    5 1
     7    5   10 ar
     8    5    6 ar
     9    6    7 ar
    10    7    8 ar
    11    8    9 ar
    12    9   10 ar
    13   10   11 1
    14   11   12 1
    15   12   13 1
    16   13   20 ar
    17   13   14 ar
    18   14   15 ar
    19   15   16 ar
    20   16   17 ar
    21   17   18 1
    22   17   20 ar
    23   18   19 1
    24   21   31 ar
    25   21   22 ar
    26   22   23 ar
    27   23   24 ar
    28   24   25 ar
    29   25   26 1
    30   25   31 ar
    31   26   27 am
    32   27   28 1
    33   27   29 2
    34   27   30 2
@<TRIPOS>SUBSTRUCTURE
     1 UNK     1 RESIDUE           4 A     UNK     0 ROOT

#	Name: CHEMBL4128625
#	Creating user name:	j2ho
#	Creation time:	10. 04. 2025 18:15
#	Modifying user name:	j2ho
#	Modification time:	10. 04. 2025 18:15
#	Program:	corina 5.0.0 0026  29.08.2023
@<TRIPOS>MOLECULE
CHEMBL4128625
30 33 1 0 0
SMALL
NO_CHARGES


@<TRIPOS>ATOM
      1 C1         -1.2648   -0.0111   -1.5148 C.3       1 UNK    0.0000
      2 O2         -0.0004    0.4345   -1.0202 O.3       1 UNK    0.0000
      3 C3          0.0056    1.5747   -0.2795 C.ar      1 UNK    0.0000
      4 C4         -1.1806    2.2511   -0.0404 C.ar      1 UNK    0.0000
      5 C5         -1.1795    3.4063    0.7151 C.ar      1 UNK    0.0000
      6 C6          0.0167    3.9019    1.2310 C.ar      1 UNK    0.0000
      7 C7          0.0180    5.1464    2.0387 C.ar      1 UNK    0.0000
      8 C8          1.2121    5.6401    2.5606 C.ar      1 UNK    0.0000
      9 C9          1.2082    6.8009    3.3071 C.ar      1 UNK    0.0000
     10 C10         0.0205    7.4682    3.5466 C.ar      1 UNK    0.0000
     11 C11        -1.1684    6.9799    3.0354 C.ar      1 UNK    0.0000
     12 C12        -1.1755    5.8229    2.2830 C.ar      1 UNK    0.0000
     13 C13         1.2110    3.2269    0.9878 C.ar      1 UNK    0.0000
     14 C14         1.2054    2.0652    0.2337 C.ar      1 UNK    0.0000
     15 N15         2.4041    1.3840   -0.0135 N.pl3     1 UNK    0.0000
     16 C16         3.5908    2.0891   -0.1256 C.ar      1 UNK    0.0000
     17 N17         3.5579    3.4143   -0.1166 N.ar      1 UNK    0.0000
     18 C18         4.6697    4.1238   -0.2210 C.ar      1 UNK    0.0000
     19 C19         5.8829    3.4677   -0.3411 C.ar      1 UNK    0.0000
     20 C20         5.8861    2.0707   -0.3474 C.ar      1 UNK    0.0000
     21 C21         7.1596    1.3213   -0.4743 C.ar      1 UNK    0.0000
     22 C22         8.3656    2.0116   -0.5941 C.ar      1 UNK    0.0000
     23 C23         9.5494    1.3165   -0.7062 C.ar      1 UNK    0.0000
     24 C24         9.5408   -0.0800   -0.7110 C.ar      1 UNK    0.0000
     25 C25        10.8102   -0.8270   -0.8374 C.2       1 UNK    0.0000
     26 N26        11.9764   -0.1603   -0.9476 N.am      1 UNK    0.0000
     27 O27        10.8023   -2.0425   -0.8419 O.2       1 UNK    0.0000
     28 C28         8.3323   -0.7703   -0.5967 C.ar      1 UNK    0.0000
     29 C29         7.1500   -0.0735   -0.4794 C.ar      1 UNK    0.0000
     30 N30         4.7291    1.4225   -0.2334 N.ar      1 UNK    0.0000
@<TRIPOS>BOND
     1    1    2 1
     2    2    3 1
     3    3   14 ar
     4    3    4 ar
     5    4    5 ar
     6    5    6 ar
     7    6    7 1
     8    6   13 ar
     9    7   12 ar
    10    7    8 ar
    11    8    9 ar
    12    9   10 ar
    13   10   11 ar
    14   11   12 ar
    15   13   14 ar
    16   14   15 1
    17   15   16 1
    18   16   30 ar
    19   16   17 ar
    20   17   18 ar
    21   18   19 ar
    22   19   20 ar
    23   20   21 1
    24   20   30 ar
    25   21   29 ar
    26   21   22 ar
    27   22   23 ar
    28   23   24 ar
    29   24   25 1
    30   24   28 ar
    31   25   26 am
    32   25   27 2
    33   28   29 ar
@<TRIPOS>SUBSTRUCTURE
     1 UNK     1 RESIDUE           4 A     UNK     0 ROOT

#	Name: CHEMBL3984390
#	Creating user name:	j2ho
#	Creation time:	10. 04. 2025 18:10
#	Modifying user name:	j2ho
#	Modification time:	10. 04. 2025 18:10
#	Program:	corina 5.0.0 0026  29.08.2023
@<TRIPOS>MOLECULE
CHEMBL3984390
28 30 1 0 0
SMALL
NO_CHARGES


@<TRIPOS>ATOM
      1 C1         -1.4986    0.8547   -4.9836 C.3       1 UNK    0.0000
      2 C2         -0.2712   -0.0582   -4.9495 C.3       1 UNK    0.0000
      3 C3          0.9961    0.7852   -5.1027 C.3       1 UNK    0.0000
      4 C4         -0.3541   -1.0672   -6.0965 C.3       1 UNK    0.0000
      5 C5         -0.3963   -0.3313   -7.4109 C.2       1 UNK    0.0000
      6 O6         -0.3635    0.8764   -7.4284 O.2       1 UNK    0.0000
      7 O7         -0.4704   -1.0174   -8.5622 O.3       1 UNK    0.0000
      8 N8         -0.2302   -0.7736   -3.6717 N.am      1 UNK    0.0000
      9 C9         -0.1558   -0.0847   -2.5157 C.2       1 UNK    0.0000
     10 O10        -0.1228    1.1309   -2.5333 O.2       1 UNK    0.0000
     11 C11        -0.1145   -0.8044   -1.2304 C.ar      1 UNK    0.0000
     12 N12        -0.1465   -2.1413   -1.2261 N.ar      1 UNK    0.0000
     13 C13        -0.1180   -2.8452   -0.1252 C.ar      1 UNK    0.0000
     14 C14        -0.0460   -2.2064    1.1294 C.ar      1 UNK    0.0000
     15 C15        -0.0154   -2.9342    2.3255 C.ar      1 UNK    0.0000
     16 C16         0.0548   -2.2609    3.5269 C.ar      1 UNK    0.0000
     17 O17         0.0843   -2.9630    4.6890 O.3       1 UNK    0.0000
     18 C18         1.1839   -3.7171    4.9510 C.ar      1 UNK    0.0000
     19 C19         2.2831   -3.6602    4.1061 C.ar      1 UNK    0.0000
     20 C20         3.4015   -4.4242    4.3774 C.ar      1 UNK    0.0000
     21 C21         3.4222   -5.2531    5.4839 C.ar      1 UNK    0.0000
     22 C22         2.3262   -5.3156    6.3246 C.ar      1 UNK    0.0000
     23 C23         1.2073   -4.5497    6.0608 C.ar      1 UNK    0.0000
     24 C24         0.0955   -0.8640    3.5625 C.ar      1 UNK    0.0000
     25 C25         0.0664   -0.1346    2.4129 C.ar      1 UNK    0.0000
     26 C26        -0.0047   -0.7893    1.1761 C.ar      1 UNK    0.0000
     27 C27        -0.0377   -0.0792   -0.0437 C.ar      1 UNK    0.0000
     28 O28        -0.0012    1.2748   -0.0594 O.3       1 UNK    0.0000
@<TRIPOS>BOND
     1    1    2 1
     2    2    3 1
     3    2    4 1
     4    2    8 1
     5    4    5 1
     6    5    6 2
     7    5    7 1
     8    8    9 am
     9    9   10 2
    10    9   11 1
    11   11   27 ar
    12   11   12 ar
    13   12   13 ar
    14   13   14 ar
    15   14   26 ar
    16   14   15 ar
    17   15   16 ar
    18   16   17 1
    19   16   24 ar
    20   17   18 1
    21   18   23 ar
    22   18   19 ar
    23   19   20 ar
    24   20   21 ar
    25   21   22 ar
    26   22   23 ar
    27   24   25 ar
    28   25   26 ar
    29   26   27 ar
    30   27   28 1
@<TRIPOS>SUBSTRUCTURE
     1 UNK     1 RESIDUE           4 A     UNK     0 ROOT

