#	Name: CHEMBL3715397
#	Creating user name:	j2ho
#	Creation time:	10. 04. 2025 18:12
#	Modifying user name:	j2ho
#	Modification time:	10. 04. 2025 18:12
#	Program:	corina 5.0.0 0026  29.08.2023
@<TRIPOS>MOLECULE
CHEMBL3715397
32 36 1 0 0
SMALL
NO_CHARGES


@<TRIPOS>ATOM
      1 C1          2.4892    4.5571    3.1137 C.3       1 UNK    0.0000
      2 C2          3.2140    3.9914    1.8907 C.3       1 UNK    0.0000
      3 C4          4.4468    4.8460    1.5873 C.3       1 UNK    0.0000
      4 N5          5.1189    4.3238    0.3893 N.3       1 UNK    0.0000
      5 C6          6.3512    5.0724    0.1085 C.3       1 UNK    0.0000
      6 C7          6.0242    6.5341   -0.0578 C.2       1 UNK    0.0000
      7 C8          4.7863    7.0746   -0.0816 C.2       1 UNK    0.0000
      8 N9          4.9169    8.4083   -0.2478 N.pl3     1 UNK    0.0000
      9 N11         6.2831    8.7062   -0.3299 N.2       1 UNK    0.0000
     10 C12         6.9552    7.5805   -0.2098 C.2       1 UNK    0.0000
     11 C13         8.4314    7.4386   -0.2346 C.2       1 UNK    0.0000
     12 C14         9.1339    6.2807   -0.2132 C.2       1 UNK    0.0000
     13 N15        10.4733    6.5526   -0.2517 N.pl3     1 UNK    0.0000
     14 C17        10.6828    7.9111   -0.2898 C.ar      1 UNK    0.0000
     15 N18        11.7796    8.6569   -0.3299 N.ar      1 UNK    0.0000
     16 C19        11.7209    9.9711   -0.3621 C.ar      1 UNK    0.0000
     17 C20        10.5086   10.6436   -0.3557 C.ar      1 UNK    0.0000
     18 C21         9.3316    9.9193   -0.3141 C.ar      1 UNK    0.0000
     19 C22         9.4185    8.5274   -0.2809 C.ar      1 UNK    0.0000
     20 C23         4.2149    4.3439   -0.7691 C.3       1 UNK    0.0000
     21 C24         2.9821    3.4892   -0.4657 C.3       1 UNK    0.0000
     22 N25         2.3100    4.0115    0.7323 N.3       1 UNK    0.0000
     23 C26         1.1439    3.3031    0.9980 C.ar      1 UNK    0.0000
     24 C27         1.1979    1.9223    1.1603 C.ar      1 UNK    0.0000
     25 C28         0.0300    1.2300    1.4239 C.ar      1 UNK    0.0000
     26 C29        -1.1582    1.9436    1.5114 C.ar      1 UNK    0.0000
     27 C30        -2.4558    1.2300    1.7908 C.3       1 UNK    0.0000
     28 F31        -2.6662    1.1687    3.1725 F         1 UNK    0.0000
     29 F32        -3.5097    1.9261    1.1891 F         1 UNK    0.0000
     30 F33        -2.3962   -0.0671    1.2701 F         1 UNK    0.0000
     31 C34        -1.1379    3.3136    1.3445 C.ar      1 UNK    0.0000
     32 N35        -0.0083    3.9482    1.0940 N.ar      1 UNK    0.0000
@<TRIPOS>BOND
     1    1    2 1
     2    2   22 1
     3    2    3 1
     4    3    4 1
     5    4    5 1
     6    4   20 1
     7    5    6 1
     8    6   10 1
     9    6    7 2
    10    7    8 1
    11    8    9 1
    12    9   10 2
    13   10   11 1
    14   11   19 1
    15   11   12 2
    16   12   13 1
    17   13   14 1
    18   14   19 ar
    19   14   15 ar
    20   15   16 ar
    21   16   17 ar
    22   17   18 ar
    23   18   19 ar
    24   20   21 1
    25   21   22 1
    26   22   23 1
    27   23   32 ar
    28   23   24 ar
    29   24   25 ar
    30   25   26 ar
    31   26   27 1
    32   26   31 ar
    33   27   28 1
    34   27   29 1
    35   27   30 1
    36   31   32 ar
@<TRIPOS>SUBSTRUCTURE
     1 UNK     1 RESIDUE           4 A     UNK     0 ROOT

#	Name: CHEMBL1642129
#	Creating user name:	j2ho
#	Creation time:	10. 04. 2025 17:56
#	Modifying user name:	j2ho
#	Modification time:	10. 04. 2025 17:56
#	Program:	corina 5.0.0 0026  29.08.2023
@<TRIPOS>MOLECULE
CHEMBL1642129
32 36 1 0 0
SMALL
NO_CHARGES


@<TRIPOS>ATOM
      1 C1          0.1520   -4.2817    0.0724 C.3       1 UNK    0.0000
      2 C2          0.0944   -2.7765    0.0270 C.ar      1 UNK    0.0000
      3 C3         -1.0832   -2.1282    0.3506 C.ar      1 UNK    0.0000
      4 C4         -1.1524   -0.7421    0.3122 C.ar      1 UNK    0.0000
      5 N5         -2.3332   -0.0907    0.6384 N.3       1 UNK    0.0000
      6 C6         -3.4525   -1.0393    0.7207 C.3       1 UNK    0.0000
      7 C7         -4.7471   -0.2734    1.0032 C.3       1 UNK    0.0000
      8 N8         -4.6045    0.4786    2.2577 N.3       1 UNK    0.0000
      9 C9         -5.8547    1.1683    2.6031 C.3       1 UNK    0.0000
     10 C10        -3.4852    1.4272    2.1754 C.3       1 UNK    0.0000
     11 C11        -2.1906    0.6613    1.8929 C.3       1 UNK    0.0000
     12 C12        -0.0155   -0.0052   -0.0595 C.ar      1 UNK    0.0000
     13 C13         1.1795   -0.6755   -0.3837 C.ar      1 UNK    0.0000
     14 C14         1.2200   -2.0608   -0.3372 C.ar      1 UNK    0.0000
     15 N15         2.3060    0.0505   -0.7430 N.am      1 UNK    0.0000
     16 S16         3.8038   -0.6522   -0.6715 S.o2      1 UNK    0.0000
     17 O17         4.7396    0.4097   -0.5448 O.2       1 UNK    0.0000
     18 O18         3.7037   -1.7157    0.2656 O.2       1 UNK    0.0000
     19 C19         4.1058   -1.3972   -2.2394 C.ar      1 UNK    0.0000
     20 C20         3.7260   -2.7207   -2.4550 C.ar      1 UNK    0.0000
     21 C21         3.9398   -3.3243   -3.6559 C.ar      1 UNK    0.0000
     22 C22         4.5633   -2.6088   -4.6925 C.ar      1 UNK    0.0000
     23 C23         4.8060   -3.2002   -5.9441 C.ar      1 UNK    0.0000
     24 C24         5.4126   -2.4768   -6.9243 C.ar      1 UNK    0.0000
     25 C25         5.7974   -1.1549   -6.7069 C.ar      1 UNK    0.0000
     26 C26         5.5780   -0.5494   -5.5080 C.ar      1 UNK    0.0000
     27 C27         4.9545   -1.2647   -4.4715 C.ar      1 UNK    0.0000
     28 C28         4.7116   -0.6734   -3.2198 C.ar      1 UNK    0.0000
     29 C29         2.1672    1.4431   -1.1862 C.3       1 UNK    0.0000
     30 C30         1.2699    2.1927   -0.1910 C.3       1 UNK    0.0000
     31 C31        -0.0542    1.4585   -0.1165 C.2       1 UNK    0.0000
     32 O32        -1.1079    2.0607   -0.1095 O.2       1 UNK    0.0000
@<TRIPOS>BOND
     1    1    2 1
     2    2   14 ar
     3    2    3 ar
     4    3    4 ar
     5    4    5 1
     6    4   12 ar
     7    5   11 1
     8    5    6 1
     9    6    7 1
    10    7    8 1
    11    8    9 1
    12    8   10 1
    13   10   11 1
    14   12   31 1
    15   12   13 ar
    16   13   14 ar
    17   13   15 1
    18   15   16 am
    19   15   29 1
    20   16   17 2
    21   16   18 2
    22   16   19 1
    23   19   28 ar
    24   19   20 ar
    25   20   21 ar
    26   21   22 ar
    27   22   27 ar
    28   22   23 ar
    29   23   24 ar
    30   24   25 ar
    31   25   26 ar
    32   26   27 ar
    33   27   28 ar
    34   29   30 1
    35   30   31 1
    36   31   32 2
@<TRIPOS>SUBSTRUCTURE
     1 UNK     1 RESIDUE           4 A     UNK     0 ROOT

#	Name: CHEMBL253237
#	Creating user name:	j2ho
#	Creation time:	10. 04. 2025 18:01
#	Modifying user name:	j2ho
#	Modification time:	10. 04. 2025 18:01
#	Program:	corina 5.0.0 0026  29.08.2023
@<TRIPOS>MOLECULE
CHEMBL253237
35 38 1 0 0
SMALL
NO_CHARGES


@<TRIPOS>ATOM
      1 C1         -4.7894   -1.0256   -4.8870 C.3       1 UNK    0.0000
      2 C2         -5.4407   -1.0057   -3.5282 C.2       1 UNK    0.0000
      3 O3         -6.5442   -1.4863   -3.3774 O.2       1 UNK    0.0000
      4 C4         -4.7395   -0.4045   -2.3866 C.ar      1 UNK    0.0000
      5 C5         -5.3425   -0.3847   -1.1227 C.ar      1 UNK    0.0000
      6 C6         -4.6834    0.1774   -0.0600 C.ar      1 UNK    0.0000
      7 C7         -3.4178    0.7275   -0.2355 C.ar      1 UNK    0.0000
      8 O8         -2.7701    1.2829    0.8190 O.3       1 UNK    0.0000
      9 C9         -1.5860    1.9061    0.5838 C.ar      1 UNK    0.0000
     10 C10        -0.3943    1.2821    0.9295 C.ar      1 UNK    0.0000
     11 C11         0.8094    1.9084    0.6870 C.ar      1 UNK    0.0000
     12 C12         0.8294    3.1746    0.0982 C.ar      1 UNK    0.0000
     13 C13         2.1174    3.8494   -0.1639 C.2       1 UNK    0.0000
     14 C14         3.2752    3.2413   -0.5543 C.2       1 UNK    0.0000
     15 C15         4.2507    4.2351   -0.6913 C.2       1 UNK    0.0000
     16 C16         3.6693    5.4303   -0.3820 C.2       1 UNK    0.0000
     17 C17         4.3370    6.7483   -0.3947 C.ar      1 UNK    0.0000
     18 C18         3.7556    7.8226   -1.0708 C.ar      1 UNK    0.0000
     19 C19         4.3842    9.0504   -1.0787 C.ar      1 UNK    0.0000
     20 C20         5.5888    9.2194   -0.4186 C.ar      1 UNK    0.0000
     21 C21         6.1713    8.1600    0.2535 C.ar      1 UNK    0.0000
     22 C22         5.5503    6.9268    0.2747 C.ar      1 UNK    0.0000
     23 Cl23        6.2788    5.5999    1.1246 Cl        1 UNK    0.0000
     24 N24         2.3555    5.1963   -0.0630 N.pl3     1 UNK    0.0000
     25 C25         1.3739    6.2128    0.3235 C.3       1 UNK    0.0000
     26 C26         1.4934    6.4909    1.7998 C.2       1 UNK    0.0000
     27 O27         2.3172    5.8984    2.4636 O.2       1 UNK    0.0000
     28 N28         0.6847    7.3981    2.3824 N.am      1 UNK    0.0000
     29 C29         0.7225    7.5789    3.7515 C.2       1 UNK    0.0000
     30 N30         1.6086    6.9485    4.4671 N.2       1 UNK    0.0000
     31 N31        -0.1755    8.4244    4.3581 N.pl3     1 UNK    0.0000
     32 C32        -0.3713    3.8010   -0.2425 C.ar      1 UNK    0.0000
     33 C33        -1.5707    3.1678    0.0033 C.ar      1 UNK    0.0000
     34 C34        -2.8167    0.7152   -1.4899 C.ar      1 UNK    0.0000
     35 C35        -3.4652    0.1507   -2.5579 C.ar      1 UNK    0.0000
@<TRIPOS>BOND
     1    1    2 1
     2    2    3 2
     3    2    4 1
     4    4   35 ar
     5    4    5 ar
     6    5    6 ar
     7    6    7 ar
     8    7    8 1
     9    7   34 ar
    10    8    9 1
    11    9   33 ar
    12    9   10 ar
    13   10   11 ar
    14   11   12 ar
    15   12   13 1
    16   12   32 ar
    17   13   24 1
    18   13   14 2
    19   14   15 1
    20   15   16 2
    21   16   17 1
    22   16   24 1
    23   17   22 ar
    24   17   18 ar
    25   18   19 ar
    26   19   20 ar
    27   20   21 ar
    28   21   22 ar
    29   22   23 1
    30   24   25 1
    31   25   26 1
    32   26   27 2
    33   26   28 am
    34   28   29 1
    35   29   30 2
    36   29   31 1
    37   32   33 ar
    38   34   35 ar
@<TRIPOS>SUBSTRUCTURE
     1 UNK     1 RESIDUE           4 A     UNK     0 ROOT

#	Name: CHEMBL5079121
#	Creating user name:	j2ho
#	Creation time:	10. 04. 2025 18:11
#	Modifying user name:	j2ho
#	Modification time:	10. 04. 2025 18:11
#	Program:	corina 5.0.0 0026  29.08.2023
@<TRIPOS>MOLECULE
CHEMBL5079121
31 35 1 0 0
SMALL
NO_CHARGES


@<TRIPOS>ATOM
      1 C1          4.8749    5.4674   -0.0178 C.3       1 UNK    0.0000
      2 N2          4.8266    4.0032   -0.0242 N.pl3     1 UNK    0.0000
      3 C3          3.6034    3.3498   -0.0152 C.ar      1 UNK    0.0000
      4 C4          2.4227    4.1067    0.0001 C.ar      1 UNK    0.0000
      5 C5          1.2141    3.4785    0.0086 C.ar      1 UNK    0.0000
      6 C6          1.1937    2.0685    0.0018 C.ar      1 UNK    0.0000
      7 C7         -0.0164    1.3578    0.0095 C.ar      1 UNK    0.0000
      8 C8          0.0021   -0.0041    0.0020 C.ar      1 UNK    0.0000
      9 C9          1.2075   -0.7019   -0.0132 C.ar      1 UNK    0.0000
     10 C10         1.1921   -2.2088   -0.0212 C.3       1 UNK    0.0000
     11 C11         1.1732   -2.7110   -1.4663 C.3       1 UNK    0.0000
     12 C12         1.1579   -4.2179   -1.4742 C.ar      1 UNK    0.0000
     13 C13         2.3434   -4.9292   -1.4951 C.ar      1 UNK    0.0000
     14 N14         2.3422   -6.2478   -1.4959 N.ar      1 UNK    0.0000
     15 C15         1.2212   -6.9414   -1.4893 C.ar      1 UNK    0.0000
     16 C16        -0.0091   -6.2985   -1.4742 C.ar      1 UNK    0.0000
     17 N17        -1.1983   -7.0395   -1.4673 N.pl3     1 UNK    0.0000
     18 C18        -2.2398   -6.8511   -0.5909 C.2       1 UNK    0.0000
     19 C19        -3.2241   -7.7252   -0.8606 C.2       1 UNK    0.0000
     20 Cl20       -4.7388   -7.8675   -0.0245 Cl        1 UNK    0.0000
     21 C21        -2.7721   -8.5378   -1.9893 C.ar      1 UNK    0.0000
     22 C22        -3.3151   -9.5987   -2.7302 C.ar      1 UNK    0.0000
     23 N23        -4.5694  -10.1010   -2.4345 N.pl3     1 UNK    0.0000
     24 N24        -2.5931  -10.1091   -3.7234 N.ar      1 UNK    0.0000
     25 C25        -1.3945   -9.6325   -4.0089 C.ar      1 UNK    0.0000
     26 N26        -0.8469   -8.6399   -3.3419 N.ar      1 UNK    0.0000
     27 C27        -1.4922   -8.0627   -2.3295 C.ar      1 UNK    0.0000
     28 C28        -0.0440   -4.9063   -1.4665 C.ar      1 UNK    0.0000
     29 C29         2.3993   -0.0439   -0.0206 C.ar      1 UNK    0.0000
     30 C30         2.4204    1.3613   -0.0133 C.ar      1 UNK    0.0000
     31 N31         3.5777    2.0329   -0.0207 N.ar      1 UNK    0.0000
@<TRIPOS>BOND
     1    1    2 1
     2    2    3 1
     3    3   31 ar
     4    3    4 ar
     5    4    5 ar
     6    5    6 ar
     7    6   30 ar
     8    6    7 ar
     9    7    8 ar
    10    8    9 ar
    11    9   10 1
    12    9   29 ar
    13   10   11 1
    14   11   12 1
    15   12   28 ar
    16   12   13 ar
    17   13   14 ar
    18   14   15 ar
    19   15   16 ar
    20   16   17 1
    21   16   28 ar
    22   17   27 1
    23   17   18 1
    24   18   19 2
    25   19   20 1
    26   19   21 1
    27   21   27 ar
    28   21   22 ar
    29   22   23 1
    30   22   24 ar
    31   24   25 ar
    32   25   26 ar
    33   26   27 ar
    34   29   30 ar
    35   30   31 ar
@<TRIPOS>SUBSTRUCTURE
     1 UNK     1 RESIDUE           4 A     UNK     0 ROOT

#	Name: CHEMBL1343365
#	Creating user name:	j2ho
#	Creation time:	10. 04. 2025 18:09
#	Modifying user name:	j2ho
#	Modification time:	10. 04. 2025 18:09
#	Program:	corina 5.0.0 0026  29.08.2023
@<TRIPOS>MOLECULE
CHEMBL1343365
27 30 1 0 0
SMALL
NO_CHARGES


@<TRIPOS>ATOM
      1 O1         -3.5347   -2.1028   -0.6797 O.2       1 UNK    0.0000
      2 C2         -2.8668   -1.6945   -1.6060 C.2       1 UNK    0.0000
      3 C3         -3.3125   -1.9440   -3.0238 C.3       1 UNK    0.0000
      4 N4         -4.5711   -2.6936   -3.0153 N.am      1 UNK    0.0000
      5 C5         -4.5475   -4.0511   -3.0284 C.2       1 UNK    0.0000
      6 N6         -5.6399   -4.7563   -3.0157 N.2       1 UNK    0.0000
      7 C7         -6.8578   -4.1769   -3.0005 C.2       1 UNK    0.0000
      8 S8         -8.4689   -4.8845   -2.9882 S.3       1 UNK    0.0000
      9 C9         -9.2188   -3.2976   -2.9722 C.2       1 UNK    0.0000
     10 C10       -10.6770   -3.0559   -2.9568 C.ar      1 UNK    0.0000
     11 C11       -11.1710   -1.7505   -2.9386 C.ar      1 UNK    0.0000
     12 C12       -12.5331   -1.5318   -2.9301 C.ar      1 UNK    0.0000
     13 C13       -13.4088   -2.6031   -2.9281 C.ar      1 UNK    0.0000
     14 C14       -12.9257   -3.8995   -2.9404 C.ar      1 UNK    0.0000
     15 C15       -11.5659   -4.1321   -2.9547 C.ar      1 UNK    0.0000
     16 C16        -8.2893   -2.3391   -2.9763 C.2       1 UNK    0.0000
     17 C17        -6.9612   -2.7864   -2.9920 C.2       1 UNK    0.0000
     18 C18        -5.7441   -2.0315   -3.0001 C.2       1 UNK    0.0000
     19 O19        -5.7692   -0.8130   -2.9937 O.2       1 UNK    0.0000
     20 N20        -1.7259   -1.0177   -1.3675 N.am      1 UNK    0.0000
     21 C21        -1.2926   -0.7753    0.0108 C.3       1 UNK    0.0000
     22 C22         0.0021   -0.0041    0.0020 C.ar      1 UNK    0.0000
     23 C23        -0.0167    1.3781    0.0096 C.ar      1 UNK    0.0000
     24 C24         1.1710    2.0855    0.0021 C.ar      1 UNK    0.0000
     25 C25         2.3773    1.4107   -0.0150 C.ar      1 UNK    0.0000
     26 C26         2.3960    0.0285   -0.0217 C.ar      1 UNK    0.0000
     27 C27         1.2084   -0.6789   -0.0132 C.ar      1 UNK    0.0000
@<TRIPOS>BOND
     1    1    2 2
     2    2    3 1
     3    2   20 am
     4    3    4 1
     5    4   18 am
     6    4    5 1
     7    5    6 2
     8    6    7 1
     9    7   17 2
    10    7    8 1
    11    8    9 1
    12    9   10 1
    13    9   16 2
    14   10   15 ar
    15   10   11 ar
    16   11   12 ar
    17   12   13 ar
    18   13   14 ar
    19   14   15 ar
    20   16   17 1
    21   17   18 1
    22   18   19 2
    23   20   21 1
    24   21   22 1
    25   22   27 ar
    26   22   23 ar
    27   23   24 ar
    28   24   25 ar
    29   25   26 ar
    30   26   27 ar
@<TRIPOS>SUBSTRUCTURE
     1 UNK     1 RESIDUE           4 A     UNK     0 ROOT

#	Name: CHEMBL370378
#	Creating user name:	j2ho
#	Creation time:	10. 04. 2025 18:09
#	Modifying user name:	j2ho
#	Modification time:	10. 04. 2025 18:09
#	Program:	corina 5.0.0 0026  29.08.2023
@<TRIPOS>MOLECULE
CHEMBL370378
31 34 1 0 0
SMALL
NO_CHARGES


@<TRIPOS>ATOM
      1 C1         -2.4427    1.1234   -0.0332 C.3       1 UNK    0.0000
      2 N2         -1.1881    1.8799   -0.0321 N.am      1 UNK    0.0000
      3 C3         -0.0152    1.2155   -0.0316 C.2       1 UNK    0.0000
      4 O4          0.0013   -0.0027   -0.0317 O.2       1 UNK    0.0000
      5 C5          1.1949    1.9447   -0.0369 C.2       1 UNK    0.0000
      6 N6          2.5250    1.5778   -0.0427 N.pl3     1 UNK    0.0000
      7 C8          3.2893    2.7112   -0.0460 C.2       1 UNK    0.0000
      8 C9          4.7663    2.7543   -0.0529 C.ar      1 UNK    0.0000
      9 C10         5.4308    3.9824   -0.0620 C.ar      1 UNK    0.0000
     10 C11         6.8085    4.0184   -0.0626 C.ar      1 UNK    0.0000
     11 C12         7.5359    2.8351   -0.0658 C.ar      1 UNK    0.0000
     12 O13         8.8936    2.8747   -0.0717 O.3       1 UNK    0.0000
     13 C14         9.5050    4.1663   -0.0748 C.3       1 UNK    0.0000
     14 C15        11.0041    4.0125   -0.0812 C.2       1 UNK    0.0000
     15 O16        11.5002    2.9057   -0.0830 O.2       1 UNK    0.0000
     16 N17        11.7936    5.1049   -0.0849 N.am      1 UNK    0.0000
     17 C18        13.1830    4.9644    0.0068 C.ar      1 UNK    0.0000
     18 C19        13.9336    5.9079    0.6959 C.ar      1 UNK    0.0000
     19 C20        15.3040    5.7642    0.7890 C.ar      1 UNK    0.0000
     20 C21        15.9304    4.6871    0.1874 C.ar      1 UNK    0.0000
     21 Br22       17.8079    4.4980    0.3103 Br        1 UNK    0.0000
     22 C23        15.1856    3.7484   -0.5043 C.ar      1 UNK    0.0000
     23 C24        13.8143    3.8843   -0.5960 C.ar      1 UNK    0.0000
     24 C25         6.8787    1.6114   -0.0626 C.ar      1 UNK    0.0000
     25 C26         5.5013    1.5669   -0.0562 C.ar      1 UNK    0.0000
     26 C27         2.4544    3.8057   -0.0423 C.2       1 UNK    0.0000
     27 C28         1.1383    3.3363   -0.0365 C.2       1 UNK    0.0000
     28 N29        -0.1020    3.9616   -0.0306 N.am      1 UNK    0.0000
     29 C30        -0.1851    5.4243   -0.0306 C.3       1 UNK    0.0000
     30 C31        -1.2281    3.2231   -0.0253 C.2       1 UNK    0.0000
     31 O32        -2.3065    3.7850   -0.0202 O.2       1 UNK    0.0000
@<TRIPOS>BOND
     1    1    2 1
     2    2   30 am
     3    2    3 am
     4    3    4 2
     5    3    5 1
     6    5   27 2
     7    5    6 1
     8    6    7 1
     9    7    8 1
    10    7   26 2
    11    8   25 ar
    12    8    9 ar
    13    9   10 ar
    14   10   11 ar
    15   11   12 1
    16   11   24 ar
    17   12   13 1
    18   13   14 1
    19   14   15 2
    20   14   16 am
    21   16   17 1
    22   17   23 ar
    23   17   18 ar
    24   18   19 ar
    25   19   20 ar
    26   20   21 1
    27   20   22 ar
    28   22   23 ar
    29   24   25 ar
    30   26   27 1
    31   27   28 1
    32   28   29 1
    33   28   30 am
    34   30   31 2
@<TRIPOS>SUBSTRUCTURE
     1 UNK     1 RESIDUE           4 A     UNK     0 ROOT

#	Name: CHEMBL4172656
#	Creating user name:	j2ho
#	Creation time:	10. 04. 2025 18:15
#	Modifying user name:	j2ho
#	Modification time:	10. 04. 2025 18:15
#	Program:	corina 5.0.0 0026  29.08.2023
@<TRIPOS>MOLECULE
CHEMBL4172656
32 36 1 0 0
SMALL
NO_CHARGES


@<TRIPOS>ATOM
      1 C1         -7.7678   12.8156   -2.0009 C.3       1 UNK    0.0000
      2 C2         -6.6940   11.7600   -1.9401 C.ar      1 UNK    0.0000
      3 C3         -5.7855   11.6414   -2.9847 C.ar      1 UNK    0.0000
      4 C4         -4.7965   10.6844   -2.9494 C.ar      1 UNK    0.0000
      5 C5         -4.7031    9.8256   -1.8576 C.ar      1 UNK    0.0000
      6 N6         -3.8482    8.7967   -1.5405 N.pl3     1 UNK    0.0000
      7 C8         -4.2140    8.2762   -0.3142 C.2       1 UNK    0.0000
      8 C9         -3.5447    7.1613    0.3726 C.2       1 UNK    0.0000
      9 O10        -3.9516    6.7809    1.4541 O.2       1 UNK    0.0000
     10 N11        -2.4804    6.5609   -0.1961 N.am      1 UNK    0.0000
     11 C12        -1.8137    5.4503    0.4882 C.3       1 UNK    0.0000
     12 C14        -2.4097    4.0968    0.0467 C.3       1 UNK    0.0000
     13 C15        -1.2406    3.1354    0.0308 C.ar      1 UNK    0.0000
     14 C16        -1.2175    1.7507    0.0173 C.ar      1 UNK    0.0000
     15 C17        -0.0126    1.0758    0.0080 C.ar      1 UNK    0.0000
     16 C18         1.1748    1.7840    0.0004 C.ar      1 UNK    0.0000
     17 C19         1.1537    3.1648    0.0081 C.ar      1 UNK    0.0000
     18 C20        -0.0536    3.8434    0.0233 C.ar      1 UNK    0.0000
     19 C21        -0.3437    5.3290    0.0335 C.3       1 UNK    0.0000
     20 C23         0.5649    6.0325    1.0085 C.2       1 UNK    0.0000
     21 O24         0.0945    6.6281    1.9545 O.2       1 UNK    0.0000
     22 N25         1.9003    5.9998    0.8292 N.am      1 UNK    0.0000
     23 C26         2.7836    6.6837    1.7769 C.3       1 UNK    0.0000
     24 C28         4.1658    6.0251    1.7542 C.3       1 UNK    0.0000
     25 C29         5.0992    6.7829    2.7023 C.3       1 UNK    0.0000
     26 C30         5.1670    8.2516    2.2776 C.3       1 UNK    0.0000
     27 N31         3.8205    8.8364    2.3166 N.3       1 UNK    0.0000
     28 C32         3.8656   10.2801    2.0489 C.3       1 UNK    0.0000
     29 C33         2.9185    8.1552    1.3791 C.3       1 UNK    0.0000
     30 C34        -5.2943    8.9546    0.1533 C.2       1 UNK    0.0000
     31 C35        -5.6252    9.9479   -0.7999 C.ar      1 UNK    0.0000
     32 C36        -6.6226   10.9300   -0.8596 C.ar      1 UNK    0.0000
@<TRIPOS>BOND
     1    1    2 1
     2    2   32 ar
     3    2    3 ar
     4    3    4 ar
     5    4    5 ar
     6    5   31 ar
     7    5    6 1
     8    6    7 1
     9    7    8 1
    10    7   30 2
    11    8    9 2
    12    8   10 am
    13   10   11 1
    14   11   19 1
    15   11   12 1
    16   12   13 1
    17   13   18 ar
    18   13   14 ar
    19   14   15 ar
    20   15   16 ar
    21   16   17 ar
    22   17   18 ar
    23   18   19 1
    24   19   20 1
    25   20   21 2
    26   20   22 am
    27   22   23 1
    28   23   29 1
    29   23   24 1
    30   24   25 1
    31   25   26 1
    32   26   27 1
    33   27   28 1
    34   27   29 1
    35   30   31 1
    36   31   32 ar
@<TRIPOS>SUBSTRUCTURE
     1 UNK     1 RESIDUE           4 A     UNK     0 ROOT

#	Name: CHEMBL3916911
#	Creating user name:	j2ho
#	Creation time:	10. 04. 2025 17:57
#	Modifying user name:	j2ho
#	Modification time:	10. 04. 2025 17:57
#	Program:	corina 5.0.0 0026  29.08.2023
@<TRIPOS>MOLECULE
CHEMBL3916911
34 38 1 0 0
SMALL
NO_CHARGES


@<TRIPOS>ATOM
      1 O1         -3.7089   -0.8356   -1.4824 O.2       1 UNK    0.0000
      2 C2         -4.2586   -1.2154   -0.4757 C.2       1 UNK    0.0000
      3 O3         -5.4451   -1.8383   -0.5531 O.3       1 UNK    0.0000
      4 C4         -3.6122   -0.9897    0.8668 C.3       1 UNK    0.0000
      5 C6         -4.5091   -0.0862    1.7391 C.3       1 UNK    0.0000
      6 C7         -3.4849    0.8191    2.4730 C.3       1 UNK    0.0000
      7 C8         -2.3993    1.0069    1.3839 C.3       1 UNK    0.0000
      8 N9         -2.3289   -0.2935    0.6931 N.am      1 UNK    0.0000
      9 C10        -1.2662   -0.7638    0.0105 C.2       1 UNK    0.0000
     10 O11        -1.3423   -1.8254   -0.5766 O.2       1 UNK    0.0000
     11 C12        -0.0078    0.0115   -0.0241 C.ar      1 UNK    0.0000
     12 C13         1.2129   -0.6410   -0.2052 C.ar      1 UNK    0.0000
     13 C14         2.3833    0.0882   -0.2361 C.ar      1 UNK    0.0000
     14 C15         2.3493    1.4636   -0.0877 C.ar      1 UNK    0.0000
     15 C16         1.1429    2.1165    0.0916 C.ar      1 UNK    0.0000
     16 C17         1.1153    3.6147    0.2514 C.3       1 UNK    0.0000
     17 O18         1.2291    3.9482    1.6362 O.3       1 UNK    0.0000
     18 C19         1.2206    5.2690    1.9554 C.ar      1 UNK    0.0000
     19 C20         1.1107    6.2232    0.9531 C.ar      1 UNK    0.0000
     20 C21         1.0970    7.5644    1.2744 C.ar      1 UNK    0.0000
     21 C22         1.2042    7.9616    2.6060 C.ar      1 UNK    0.0000
     22 C23         1.1950    9.4039    2.9545 C.ar      1 UNK    0.0000
     23 C24         1.3023    9.8006    4.2910 C.ar      1 UNK    0.0000
     24 C25         1.2949   11.1365    4.6275 C.ar      1 UNK    0.0000
     25 F26         1.3993   11.5066    5.9226 F         1 UNK    0.0000
     26 C27         1.1805   12.1058    3.6344 C.ar      1 UNK    0.0000
     27 O28         1.1457   13.4542    3.6588 O.3       1 UNK    0.0000
     28 C29         1.0222   13.9533    2.4168 C.2       1 UNK    0.0000
     29 C30         0.9704   12.9574    1.5220 C.2       1 UNK    0.0000
     30 C31         1.0726   11.7106    2.2908 C.ar      1 UNK    0.0000
     31 C32         1.0855   10.3591    1.9528 C.ar      1 UNK    0.0000
     32 C33         1.3198    7.0016    3.6096 C.ar      1 UNK    0.0000
     33 C34         1.3276    5.6617    3.2826 C.ar      1 UNK    0.0000
     34 C35        -0.0352    1.3989    0.1245 C.ar      1 UNK    0.0000
@<TRIPOS>BOND
     1    1    2 2
     2    2    3 1
     3    2    4 1
     4    4    8 1
     5    4    5 1
     6    5    6 1
     7    6    7 1
     8    7    8 1
     9    8    9 am
    10    9   10 2
    11    9   11 1
    12   11   34 ar
    13   11   12 ar
    14   12   13 ar
    15   13   14 ar
    16   14   15 ar
    17   15   16 1
    18   15   34 ar
    19   16   17 1
    20   17   18 1
    21   18   33 ar
    22   18   19 ar
    23   19   20 ar
    24   20   21 ar
    25   21   22 1
    26   21   32 ar
    27   22   31 ar
    28   22   23 ar
    29   23   24 ar
    30   24   25 1
    31   24   26 ar
    32   26   30 ar
    33   26   27 1
    34   27   28 1
    35   28   29 2
    36   29   30 1
    37   30   31 ar
    38   32   33 ar
@<TRIPOS>SUBSTRUCTURE
     1 UNK     1 RESIDUE           4 A     UNK     0 ROOT

#	Name: CHEMBL3099031
#	Creating user name:	j2ho
#	Creation time:	10. 04. 2025 17:59
#	Modifying user name:	j2ho
#	Modification time:	10. 04. 2025 17:59
#	Program:	corina 5.0.0 0026  29.08.2023
@<TRIPOS>MOLECULE
CHEMBL3099031
31 35 1 0 0
SMALL
NO_CHARGES


@<TRIPOS>ATOM
      1 C1         -5.0370    1.0747    0.6138 C.3       1 UNK    0.0000
      2 C2         -3.7462    1.8506    0.6682 C.ar      1 UNK    0.0000
      3 C3         -2.7008    1.3674    1.4442 C.ar      1 UNK    0.0000
      4 C4         -1.5085    2.0705    1.5034 C.ar      1 UNK    0.0000
      5 N5         -0.4461    1.6142    2.2697 N.pl3     1 UNK    0.0000
      6 C6         -1.4107    3.2727    0.7617 C.ar      1 UNK    0.0000
      7 C7         -0.2360    4.0365    0.7664 C.ar      1 UNK    0.0000
      8 C8         -0.1796    5.1986    0.0270 C.ar      1 UNK    0.0000
      9 N9          0.9885    5.9684    0.0318 N.am      1 UNK    0.0000
     10 C10         0.9113    7.3107   -0.0614 C.2       1 UNK    0.0000
     11 O11        -0.1737    7.8594   -0.0528 O.2       1 UNK    0.0000
     12 C12         2.1446    8.1152   -0.1740 C.ar      1 UNK    0.0000
     13 C13         3.3921    7.4856   -0.1782 C.ar      1 UNK    0.0000
     14 C14         4.5407    8.2359   -0.2891 C.ar      1 UNK    0.0000
     15 C15         4.4603    9.6256   -0.3851 C.ar      1 UNK    0.0000
     16 C16         5.6982   10.4331   -0.4977 C.ar      1 UNK    0.0000
     17 C17         5.6122   11.8314   -0.6005 C.ar      1 UNK    0.0000
     18 C18         6.7310   12.5941   -0.7001 C.ar      1 UNK    0.0000
     19 C19         8.0002   11.9864   -0.7117 C.ar      1 UNK    0.0000
     20 N20         9.1116   12.7220   -0.8131 N.ar      1 UNK    0.0000
     21 C21        10.2991   12.1667   -0.8254 C.ar      1 UNK    0.0000
     22 C22        10.4644   10.7864   -0.7329 C.ar      1 UNK    0.0000
     23 C23         9.3708    9.9753   -0.6264 C.ar      1 UNK    0.0000
     24 C24         8.0965   10.5755   -0.6140 C.ar      1 UNK    0.0000
     25 C25         6.9303    9.8043   -0.5067 C.ar      1 UNK    0.0000
     26 C26         3.2154   10.2557   -0.3757 C.ar      1 UNK    0.0000
     27 C27         2.0652    9.5069   -0.2707 C.ar      1 UNK    0.0000
     28 C28        -1.2814    5.6138   -0.7285 C.ar      1 UNK    0.0000
     29 C29        -2.4287    4.8846   -0.7515 C.ar      1 UNK    0.0000
     30 C30        -2.5204    3.6945   -0.0085 C.ar      1 UNK    0.0000
     31 N31        -3.6420    2.9639   -0.0187 N.ar      1 UNK    0.0000
@<TRIPOS>BOND
     1    1    2 1
     2    2   31 ar
     3    2    3 ar
     4    3    4 ar
     5    4    5 1
     6    4    6 ar
     7    6   30 ar
     8    6    7 ar
     9    7    8 ar
    10    8    9 1
    11    8   28 ar
    12    9   10 am
    13   10   11 2
    14   10   12 1
    15   12   27 ar
    16   12   13 ar
    17   13   14 ar
    18   14   15 ar
    19   15   16 1
    20   15   26 ar
    21   16   25 ar
    22   16   17 ar
    23   17   18 ar
    24   18   19 ar
    25   19   24 ar
    26   19   20 ar
    27   20   21 ar
    28   21   22 ar
    29   22   23 ar
    30   23   24 ar
    31   24   25 ar
    32   26   27 ar
    33   28   29 ar
    34   29   30 ar
    35   30   31 ar
@<TRIPOS>SUBSTRUCTURE
     1 UNK     1 RESIDUE           4 A     UNK     0 ROOT

#	Name: CHEMBL2111836
#	Creating user name:	j2ho
#	Creation time:	10. 04. 2025 18:12
#	Modifying user name:	j2ho
#	Modification time:	10. 04. 2025 18:12
#	Program:	corina 5.0.0 0026  29.08.2023
@<TRIPOS>MOLECULE
CHEMBL2111836
28 31 1 0 0
SMALL
NO_CHARGES


@<TRIPOS>ATOM
      1 C1          4.4067   -1.0700   -2.5675 C.3       1 UNK    0.0000
      2 N2          5.6969   -1.2923   -1.9012 N.3       1 UNK    0.0000
      3 C3          5.7743   -0.5746   -0.7134 C.ar      1 UNK    0.0000
      4 C4          6.8690    0.2277   -0.4313 C.ar      1 UNK    0.0000
      5 C5          6.9063    0.9561    0.7282 C.ar      1 UNK    0.0000
      6 C6          5.8575    0.8898    1.6311 C.ar      1 UNK    0.0000
      7 C7          4.7660    0.0858    1.3757 C.ar      1 UNK    0.0000
      8 C8          4.7189   -0.6619    0.2011 C.ar      1 UNK    0.0000
      9 C9          3.5765   -1.5510   -0.0897 C.2       1 UNK    0.0000
     10 C10         2.1850   -1.0585    0.0373 C.ar      1 UNK    0.0000
     11 C11         1.1139   -1.9057   -0.2456 C.ar      1 UNK    0.0000
     12 C12        -0.1798   -1.4413   -0.1251 C.ar      1 UNK    0.0000
     13 C13        -0.4156   -0.1384    0.2758 C.ar      1 UNK    0.0000
     14 C14         0.6428    0.7067    0.5579 C.ar      1 UNK    0.0000
     15 C15         1.9410    0.2541    0.4406 C.ar      1 UNK    0.0000
     16 N16         3.8165   -2.7793   -0.4664 N.2       1 UNK    0.0000
     17 C17         5.1994   -3.2587   -0.4956 C.3       1 UNK    0.0000
     18 C18         5.9475   -2.7205   -1.7070 C.3       1 UNK    0.0000
     19 C20         7.4482   -2.9405   -1.5061 C.3       1 UNK    0.0000
     20 C21         8.1994   -2.5172   -2.7700 C.3       1 UNK    0.0000
     21 N22         9.6363   -2.7279   -2.5777 N.am      1 UNK    0.0000
     22 C23        10.5004   -2.4230   -3.5661 C.2       1 UNK    0.0000
     23 O24        10.0868   -1.9725   -4.6184 O.2       1 UNK    0.0000
     24 C25        11.9381   -2.6338   -3.3737 C.2       1 UNK    0.0000
     25 C26        12.9093   -2.3646   -4.2965 C.2       1 UNK    0.0000
     26 C27        14.1770   -2.6576   -3.8530 C.2       1 UNK    0.0000
     27 C28        14.2441   -3.1497   -2.6104 C.2       1 UNK    0.0000
     28 S29        12.6901   -3.2665   -1.9157 S.3       1 UNK    0.0000
@<TRIPOS>BOND
     1    1    2 1
     2    2   18 1
     3    2    3 1
     4    3    8 ar
     5    3    4 ar
     6    4    5 ar
     7    5    6 ar
     8    6    7 ar
     9    7    8 ar
    10    8    9 1
    11    9   10 1
    12    9   16 2
    13   10   15 ar
    14   10   11 ar
    15   11   12 ar
    16   12   13 ar
    17   13   14 ar
    18   14   15 ar
    19   16   17 1
    20   17   18 1
    21   18   19 1
    22   19   20 1
    23   20   21 1
    24   21   22 am
    25   22   23 2
    26   22   24 1
    27   24   28 1
    28   24   25 2
    29   25   26 1
    30   26   27 2
    31   27   28 1
@<TRIPOS>SUBSTRUCTURE
     1 UNK     1 RESIDUE           4 A     UNK     0 ROOT

#	Name: CHEMBL4160867
#	Creating user name:	j2ho
#	Creation time:	10. 04. 2025 18:12
#	Modifying user name:	j2ho
#	Modification time:	10. 04. 2025 18:12
#	Program:	corina 5.0.0 0026  29.08.2023
@<TRIPOS>MOLECULE
CHEMBL4160867
30 33 1 0 0
SMALL
NO_CHARGES


@<TRIPOS>ATOM
      1 O1          1.0651   -0.5987   -0.0113 O.2       1 UNK    0.0000
      2 C2          0.0021   -0.0041    0.0020 C.2       1 UNK    0.0000
      3 C3         -1.2098   -0.7259    0.0097 C.2       1 UNK    0.0000
      4 C4         -1.1914   -2.0847    0.0022 C.2       1 UNK    0.0000
      5 C5         -2.4468   -2.8325    0.0102 C.2       1 UNK    0.0000
      6 C6         -3.7220   -2.3083    0.0313 C.2       1 UNK    0.0000
      7 N7         -4.6255   -3.3175    0.0292 N.am      1 UNK    0.0000
      8 S8         -6.2687   -3.1123    0.0466 S.o2      1 UNK    0.0000
      9 O9         -6.7686   -3.9637    1.0686 O.2       1 UNK    0.0000
     10 O10        -6.4982   -1.7102    0.0218 O.2       1 UNK    0.0000
     11 C11        -6.8895   -3.7452   -1.4761 C.ar      1 UNK    0.0000
     12 C12        -7.7207   -4.8498   -1.4777 C.ar      1 UNK    0.0000
     13 C13        -8.2084   -5.3465   -2.6716 C.ar      1 UNK    0.0000
     14 C14        -7.8649   -4.7383   -3.8662 C.ar      1 UNK    0.0000
     15 Cl15       -8.4772   -5.3627   -5.3658 Cl        1 UNK    0.0000
     16 C16        -7.0333   -3.6332   -3.8652 C.ar      1 UNK    0.0000
     17 C17        -6.5496   -3.1332   -2.6692 C.ar      1 UNK    0.0000
     18 Cl18       -5.5111   -1.7421   -2.6665 Cl        1 UNK    0.0000
     19 C19        -3.9862   -4.5407    0.0162 C.ar      1 UNK    0.0000
     20 C20        -4.4493   -5.8529    0.0151 C.ar      1 UNK    0.0000
     21 C21        -3.5527   -6.8989    0.0004 C.ar      1 UNK    0.0000
     22 C22        -2.1864   -6.6586   -0.0123 C.ar      1 UNK    0.0000
     23 C23        -1.7083   -5.3662   -0.0104 C.ar      1 UNK    0.0000
     24 C24        -2.6036   -4.2999    0.0038 C.ar      1 UNK    0.0000
     25 C25        -0.0180    1.4779    0.0102 C.ar      1 UNK    0.0000
     26 C26        -1.2273    2.1801    0.0196 C.ar      1 UNK    0.0000
     27 C27        -1.1997    3.5608    0.0317 C.ar      1 UNK    0.0000
     28 N28        -0.0552    4.2151    0.0243 N.ar      1 UNK    0.0000
     29 C29         1.1067    3.5922    0.0103 C.ar      1 UNK    0.0000
     30 C30         1.1717    2.2128    0.0028 C.ar      1 UNK    0.0000
@<TRIPOS>BOND
     1    1    2 2
     2    2    3 1
     3    2   25 1
     4    3    4 2
     5    4    5 1
     6    5   24 1
     7    5    6 2
     8    6    7 1
     9    7    8 am
    10    7   19 1
    11    8    9 2
    12    8   10 2
    13    8   11 1
    14   11   17 ar
    15   11   12 ar
    16   12   13 ar
    17   13   14 ar
    18   14   15 1
    19   14   16 ar
    20   16   17 ar
    21   17   18 1
    22   19   24 ar
    23   19   20 ar
    24   20   21 ar
    25   21   22 ar
    26   22   23 ar
    27   23   24 ar
    28   25   30 ar
    29   25   26 ar
    30   26   27 ar
    31   27   28 ar
    32   28   29 ar
    33   29   30 ar
@<TRIPOS>SUBSTRUCTURE
     1 UNK     1 RESIDUE           4 A     UNK     0 ROOT

#	Name: CHEMBL4087897
#	Creating user name:	j2ho
#	Creation time:	10. 04. 2025 18:06
#	Modifying user name:	j2ho
#	Modification time:	10. 04. 2025 18:06
#	Program:	corina 5.0.0 0026  29.08.2023
@<TRIPOS>MOLECULE
CHEMBL4087897
32 35 1 0 0
SMALL
NO_CHARGES


@<TRIPOS>ATOM
      1 C1         -7.0623    5.9223   -7.9270 C.3       1 UNK    0.0000
      2 O2         -6.8611    5.7855   -6.5189 O.3       1 UNK    0.0000
      3 C3         -5.7916    5.0506   -6.1173 C.ar      1 UNK    0.0000
      4 C4         -5.5390    4.8784   -4.7624 C.ar      1 UNK    0.0000
      5 C5         -4.4550    4.1335   -4.3508 C.ar      1 UNK    0.0000
      6 C6         -3.6100    3.5516   -5.2981 C.ar      1 UNK    0.0000
      7 C7         -2.4462    2.7526   -4.8612 C.2       1 UNK    0.0000
      8 C8         -1.5511    2.1365   -5.6876 C.2       1 UNK    0.0000
      9 C9         -0.5985    1.4892   -4.8835 C.2       1 UNK    0.0000
     10 C10         0.5626    0.6991   -5.3561 C.2       1 UNK    0.0000
     11 C11         0.5537   -0.3817   -6.3491 C.2       1 UNK    0.0000
     12 C12         1.8270   -0.7957   -6.4578 C.2       1 UNK    0.0000
     13 O13         2.5933   -0.0775   -5.6228 O.3       1 UNK    0.0000
     14 C14         1.8562    0.8212   -4.9554 C.2       1 UNK    0.0000
     15 C15        -0.9537    1.7279   -3.5573 C.2       1 UNK    0.0000
     16 C16        -0.2681    1.2584   -2.4090 C.2       1 UNK    0.0000
     17 O17         0.7304    0.5724   -2.5340 O.2       1 UNK    0.0000
     18 N18        -0.7213    1.5711   -1.1789 N.am      1 UNK    0.0000
     19 C19        -0.0127    1.0858    0.0080 C.3       1 UNK    0.0000
     20 C20        -0.7181    1.5718    1.2479 C.ar      1 UNK    0.0000
     21 C21        -0.3572    2.7804    1.8166 C.ar      1 UNK    0.0000
     22 C22        -1.0028    3.2337    2.9484 C.ar      1 UNK    0.0000
     23 C23        -2.0142    2.4649    3.5262 C.ar      1 UNK    0.0000
     24 C24        -2.7059    2.9414    4.7429 C.2       1 UNK    0.0000
     25 O25        -3.5861    2.2696    5.2442 O.2       1 UNK    0.0000
     26 N26        -2.3605    4.1209    5.2962 N.am      1 UNK    0.0000
     27 O27        -3.0229    4.5773    6.4615 O.3       1 UNK    0.0000
     28 C28        -2.3696    1.2439    2.9508 C.ar      1 UNK    0.0000
     29 C29        -1.7199    0.8048    1.8157 C.ar      1 UNK    0.0000
     30 N30        -2.0913    2.5099   -3.5655 N.pl3     1 UNK    0.0000
     31 C32        -3.8643    3.7316   -6.6593 C.ar      1 UNK    0.0000
     32 C33        -4.9537    4.4731   -7.0626 C.ar      1 UNK    0.0000
@<TRIPOS>BOND
     1    1    2 1
     2    2    3 1
     3    3   32 ar
     4    3    4 ar
     5    4    5 ar
     6    5    6 ar
     7    6    7 1
     8    6   31 ar
     9    7   30 1
    10    7    8 2
    11    8    9 1
    12    9   10 1
    13    9   15 2
    14   10   14 2
    15   10   11 1
    16   11   12 2
    17   12   13 1
    18   13   14 1
    19   15   16 1
    20   15   30 1
    21   16   17 2
    22   16   18 am
    23   18   19 1
    24   19   20 1
    25   20   29 ar
    26   20   21 ar
    27   21   22 ar
    28   22   23 ar
    29   23   24 1
    30   23   28 ar
    31   24   25 2
    32   24   26 am
    33   26   27 1
    34   28   29 ar
    35   31   32 ar
@<TRIPOS>SUBSTRUCTURE
     1 UNK     1 RESIDUE           4 A     UNK     0 ROOT

#	Name: CHEMBL5170150
#	Creating user name:	j2ho
#	Creation time:	10. 04. 2025 18:10
#	Modifying user name:	j2ho
#	Modification time:	10. 04. 2025 18:10
#	Program:	corina 5.0.0 0026  29.08.2023
@<TRIPOS>MOLECULE
CHEMBL5170150
35 38 1 0 0
SMALL
NO_CHARGES


@<TRIPOS>ATOM
      1 C1         12.8104    2.2194    0.3878 C.3       1 UNK    0.0000
      2 C2         11.6960    3.2337    0.4102 C.2       1 UNK    0.0000
      3 C3         11.3245    3.8455   -0.7385 C.2       1 UNK    0.0000
      4 C4         10.2854    4.7867   -0.7258 C.2       1 UNK    0.0000
      5 C5          9.8601    5.4694   -2.0002 C.3       1 UNK    0.0000
      6 C6          9.6667    5.0809    0.4537 C.2       1 UNK    0.0000
      7 C7          8.5500    6.0919    0.4962 C.3       1 UNK    0.0000
      8 N8          7.2621    5.4017    0.3916 N.am      1 UNK    0.0000
      9 C9          6.1150    6.1092    0.4079 C.2       1 UNK    0.0000
     10 O10         6.1492    7.3203    0.5094 O.2       1 UNK    0.0000
     11 C11         4.8174    5.4137    0.3025 C.ar      1 UNK    0.0000
     12 C12         4.7761    4.0217    0.1862 C.ar      1 UNK    0.0000
     13 C13         3.5636    3.3755    0.0942 C.ar      1 UNK    0.0000
     14 C14         2.3815    4.1065    0.1054 C.ar      1 UNK    0.0000
     15 O15         1.1887    3.4662    0.0089 O.3       1 UNK    0.0000
     16 C16         1.1911    2.1094    0.0224 C.ar      1 UNK    0.0000
     17 C17         1.1233    1.4019   -1.1686 C.ar      1 UNK    0.0000
     18 C18         1.1249    0.0198   -1.1608 C.ar      1 UNK    0.0000
     19 C19         1.1941   -0.6756    0.0320 C.ar      1 UNK    0.0000
     20 C20         1.2632    0.0118    1.2386 C.ar      1 UNK    0.0000
     21 C21         1.3373   -0.7337    2.5174 C.ar      1 UNK    0.0000
     22 C22         0.4348   -1.7652    2.8082 C.ar      1 UNK    0.0000
     23 C23         0.5664   -2.4154    4.0221 C.ar      1 UNK    0.0000
     24 N24         1.5195   -2.0571    4.8623 N.ar      1 UNK    0.0000
     25 N25         2.3490   -1.1138    4.6022 N.ar      1 UNK    0.0000
     26 C26         2.3136   -0.4358    3.4722 C.ar      1 UNK    0.0000
     27 C27         1.2621    1.4193    1.2394 C.ar      1 UNK    0.0000
     28 C28         1.3270    2.1403    2.4749 C.1       1 UNK    0.0000
     29 N29         1.3784    2.7122    3.4551 N.1       1 UNK    0.0000
     30 C30         2.4177    5.4922    0.2210 C.ar      1 UNK    0.0000
     31 Cl31        0.9378    6.3996    0.2421 Cl        1 UNK    0.0000
     32 C32         3.6272    6.1454    0.3192 C.ar      1 UNK    0.0000
     33 C33        10.0776    4.4270    1.6278 C.2       1 UNK    0.0000
     34 O34         9.5298    4.6777    2.6894 O.2       1 UNK    0.0000
     35 N35        11.0759    3.5244    1.5824 N.am      1 UNK    0.0000
@<TRIPOS>BOND
     1    1    2 1
     2    2   35 1
     3    2    3 2
     4    3    4 1
     5    4    5 1
     6    4    6 2
     7    6    7 1
     8    6   33 1
     9    7    8 1
    10    8    9 am
    11    9   10 2
    12    9   11 1
    13   11   32 ar
    14   11   12 ar
    15   12   13 ar
    16   13   14 ar
    17   14   15 1
    18   14   30 ar
    19   15   16 1
    20   16   27 ar
    21   16   17 ar
    22   17   18 ar
    23   18   19 ar
    24   19   20 ar
    25   20   21 1
    26   20   27 ar
    27   21   26 ar
    28   21   22 ar
    29   22   23 ar
    30   23   24 ar
    31   24   25 ar
    32   25   26 ar
    33   27   28 1
    34   28   29 3
    35   30   31 1
    36   30   32 ar
    37   33   34 2
    38   33   35 am
@<TRIPOS>SUBSTRUCTURE
     1 UNK     1 RESIDUE           4 A     UNK     0 ROOT

#	Name: CHEMBL178613
#	Creating user name:	j2ho
#	Creation time:	10. 04. 2025 18:00
#	Modifying user name:	j2ho
#	Modification time:	10. 04. 2025 18:00
#	Program:	corina 5.0.0 0026  29.08.2023
@<TRIPOS>MOLECULE
CHEMBL178613
31 35 1 0 0
SMALL
NO_CHARGES


@<TRIPOS>ATOM
      1 C1          2.6888   -6.9530   -6.9069 C.3       1 UNK    0.0000
      2 C2          1.6647   -6.5188   -5.8903 C.ar      1 UNK    0.0000
      3 C3          1.1027   -7.4480   -5.0350 C.ar      1 UNK    0.0000
      4 C4          0.1632   -7.0496   -4.1024 C.ar      1 UNK    0.0000
      5 C5         -0.2142   -5.7220   -4.0252 C.ar      1 UNK    0.0000
      6 S6         -1.4121   -5.2143   -2.8369 S.o2      1 UNK    0.0000
      7 O7         -2.1784   -6.3686   -2.5213 O.2       1 UNK    0.0000
      8 O8         -1.9854   -4.0126   -3.3333 O.2       1 UNK    0.0000
      9 N9         -0.5917   -4.8061   -1.4575 N.am      1 UNK    0.0000
     10 C10         0.3239   -3.6625   -1.4611 C.3       1 UNK    0.0000
     11 C11         0.6563   -3.2708   -0.0199 C.3       1 UNK    0.0000
     12 C12         1.5981   -2.0944   -0.0236 C.2       1 UNK    0.0000
     13 C13         2.9566   -2.1453   -0.0364 C.2       1 UNK    0.0000
     14 C14         3.7606   -3.3780   -0.0498 C.2       1 UNK    0.0000
     15 C15         4.8376   -3.5992   -0.8461 C.2       1 UNK    0.0000
     16 C16         5.3144   -4.9440   -0.5188 C.ar      1 UNK    0.0000
     17 C17         6.3641   -5.7426   -0.9765 C.ar      1 UNK    0.0000
     18 C18         6.5453   -6.9910   -0.4494 C.ar      1 UNK    0.0000
     19 C19         5.6930   -7.4679    0.5362 C.ar      1 UNK    0.0000
     20 C20         4.6506   -6.6940    1.0011 C.ar      1 UNK    0.0000
     21 C21         4.4474   -5.4225    0.4802 C.ar      1 UNK    0.0000
     22 O22         3.5418   -4.4552    0.7310 O.3       1 UNK    0.0000
     23 N23         3.4643   -0.8647   -0.0348 N.pl3     1 UNK    0.0000
     24 C25         2.4308    0.0462   -0.0208 C.ar      1 UNK    0.0000
     25 C26         2.3865    1.4365   -0.0132 C.ar      1 UNK    0.0000
     26 C27         1.1698    2.0832    0.0021 C.ar      1 UNK    0.0000
     27 C28        -0.0164    1.3617    0.0095 C.ar      1 UNK    0.0000
     28 C29         0.0021   -0.0041    0.0020 C.ar      1 UNK    0.0000
     29 C30         1.2253   -0.6818   -0.0133 C.ar      1 UNK    0.0000
     30 C31         0.3439   -4.7937   -4.8841 C.ar      1 UNK    0.0000
     31 C32         1.2876   -5.1911   -5.8128 C.ar      1 UNK    0.0000
@<TRIPOS>BOND
     1    1    2 1
     2    2   31 ar
     3    2    3 ar
     4    3    4 ar
     5    4    5 ar
     6    5    6 1
     7    5   30 ar
     8    6    7 2
     9    6    8 2
    10    6    9 am
    11    9   10 1
    12   10   11 1
    13   11   12 1
    14   12   29 1
    15   12   13 2
    16   13   14 1
    17   13   23 1
    18   14   22 1
    19   14   15 2
    20   15   16 1
    21   16   21 ar
    22   16   17 ar
    23   17   18 ar
    24   18   19 ar
    25   19   20 ar
    26   20   21 ar
    27   21   22 1
    28   23   24 1
    29   24   29 ar
    30   24   25 ar
    31   25   26 ar
    32   26   27 ar
    33   27   28 ar
    34   28   29 ar
    35   30   31 ar
@<TRIPOS>SUBSTRUCTURE
     1 UNK     1 RESIDUE           4 A     UNK     0 ROOT

#	Name: CHEMBL4854201
#	Creating user name:	j2ho
#	Creation time:	10. 04. 2025 18:15
#	Modifying user name:	j2ho
#	Modification time:	10. 04. 2025 18:15
#	Program:	corina 5.0.0 0026  29.08.2023
@<TRIPOS>MOLECULE
CHEMBL4854201
31 34 1 0 0
SMALL
NO_CHARGES


@<TRIPOS>ATOM
      1 C1          7.3296   -6.9969   -2.4930 C.3       1 UNK    0.0000
      2 C2          7.7890   -6.0888   -1.3506 C.3       1 UNK    0.0000
      3 C3          8.4276   -4.8246   -1.9292 C.3       1 UNK    0.0000
      4 C4          8.8143   -6.8303   -0.4905 C.3       1 UNK    0.0000
      5 N5          6.6324   -5.7189   -0.5239 N.3       1 UNK    0.0000
      6 C6          5.9425   -6.8524   -0.0934 C.2       1 UNK    0.0000
      7 C7          4.7525   -6.8753    0.6032 C.2       1 UNK    0.0000
      8 C8          3.9721   -5.6910    1.0324 C.ar      1 UNK    0.0000
      9 C9          4.6304   -4.5240    1.4236 C.ar      1 UNK    0.0000
     10 C10         3.9051   -3.4196    1.8247 C.ar      1 UNK    0.0000
     11 C11         2.5249   -3.4591    1.8354 C.ar      1 UNK    0.0000
     12 C12         1.8541   -4.6224    1.4520 C.ar      1 UNK    0.0000
     13 C13         0.3765   -4.6660    1.4703 C.2       1 UNK    0.0000
     14 O14        -0.2061   -5.6778    1.1314 O.2       1 UNK    0.0000
     15 N15        -0.3248   -3.5839    1.8626 N.am      1 UNK    0.0000
     16 C16        -1.7204   -3.6554    1.9729 C.ar      1 UNK    0.0000
     17 C17        -2.4425   -4.4861    1.1295 C.ar      1 UNK    0.0000
     18 C18        -3.8191   -4.5518    1.2356 C.ar      1 UNK    0.0000
     19 C19        -4.4804   -3.7981    2.1909 C.ar      1 UNK    0.0000
     20 F20        -5.8255   -3.8704    2.2940 F         1 UNK    0.0000
     21 C21        -3.7668   -2.9665    3.0365 C.ar      1 UNK    0.0000
     22 C22        -2.3858   -2.8915    2.9315 C.ar      1 UNK    0.0000
     23 N23        -1.6622   -2.0522    3.7852 N.pl3     1 UNK    0.0000
     24 C24         2.5810   -5.7404    1.0466 C.ar      1 UNK    0.0000
     25 N25         4.4272   -8.1612    0.8302 N.2       1 UNK    0.0000
     26 C26         5.3522   -8.9451    0.3014 C.2       1 UNK    0.0000
     27 C27         5.4854  -10.3493    0.2566 C.2       1 UNK    0.0000
     28 C28         6.5648  -10.8976   -0.3614 C.2       1 UNK    0.0000
     29 C29         7.5335  -10.0632   -0.9474 C.2       1 UNK    0.0000
     30 C30         7.3971   -8.7231   -0.8997 C.2       1 UNK    0.0000
     31 N31         6.3161   -8.1542   -0.2813 N.pl3     1 UNK    0.0000
@<TRIPOS>BOND
     1    1    2 1
     2    2    3 1
     3    2    4 1
     4    2    5 1
     5    5    6 1
     6    6   31 1
     7    6    7 2
     8    7    8 1
     9    7   25 1
    10    8   24 ar
    11    8    9 ar
    12    9   10 ar
    13   10   11 ar
    14   11   12 ar
    15   12   13 1
    16   12   24 ar
    17   13   14 2
    18   13   15 am
    19   15   16 1
    20   16   22 ar
    21   16   17 ar
    22   17   18 ar
    23   18   19 ar
    24   19   20 1
    25   19   21 ar
    26   21   22 ar
    27   22   23 1
    28   25   26 2
    29   26   31 1
    30   26   27 1
    31   27   28 2
    32   28   29 1
    33   29   30 2
    34   30   31 1
@<TRIPOS>SUBSTRUCTURE
     1 UNK     1 RESIDUE           4 A     UNK     0 ROOT

#	Name: CHEMBL2391133
#	Creating user name:	j2ho
#	Creation time:	10. 04. 2025 18:02
#	Modifying user name:	j2ho
#	Modification time:	10. 04. 2025 18:02
#	Program:	corina 5.0.0 0026  29.08.2023
@<TRIPOS>MOLECULE
CHEMBL2391133
28 31 1 0 0
SMALL
NO_CHARGES


@<TRIPOS>ATOM
      1 O1         -1.3223    1.7816   -3.2032 O.2       1 UNK    0.0000
      2 N2         -0.9726    1.2553   -2.1619 N.pl3     1 UNK    0.0000
      3 O3         -1.0201    0.0437   -2.0460 O.2       1 UNK    0.0000
      4 C4         -0.4899    2.0880   -1.0374 C.ar      1 UNK    0.0000
      5 C5         -0.5707    3.4640   -1.1114 C.ar      1 UNK    0.0000
      6 C6         -0.1144    4.2434   -0.0640 C.ar      1 UNK    0.0000
      7 C7          0.4192    3.6493    1.0657 C.ar      1 UNK    0.0000
      8 C8          0.4986    2.2744    1.1531 C.ar      1 UNK    0.0000
      9 C9          0.0407    1.4842    0.1005 C.ar      1 UNK    0.0000
     10 C10         0.1235    0.0052    0.1889 C.ar      1 UNK    0.0000
     11 C11        -0.5036   -0.6690    1.2346 C.ar      1 UNK    0.0000
     12 C12        -0.4274   -2.0451    1.3092 C.ar      1 UNK    0.0000
     13 C13         0.2784   -2.7540    0.3539 C.ar      1 UNK    0.0000
     14 C14         0.3629   -4.2559    0.4438 C.3       1 UNK    0.0000
     15 S15         1.8112   -4.7211    1.4246 S.3       1 UNK    0.0000
     16 C16         1.6683   -6.4763    1.3679 C.2       1 UNK    0.0000
     17 N17         0.7262   -7.1607    0.7586 N.2       1 UNK    0.0000
     18 N18         0.9382   -8.4192    0.9217 N.2       1 UNK    0.0000
     19 C19         2.0163   -8.5888    1.6479 C.2       1 UNK    0.0000
     20 C20         2.5949   -9.8822    2.0648 C.ar      1 UNK    0.0000
     21 C21         3.7602   -9.9331    2.8403 C.ar      1 UNK    0.0000
     22 C22         4.2630  -11.1624    3.2109 C.ar      1 UNK    0.0000
     23 N23         3.6677  -12.2791    2.8367 N.ar      1 UNK    0.0000
     24 C24         2.5714  -12.2766    2.1020 C.ar      1 UNK    0.0000
     25 C25         1.9969  -11.0924    1.6909 C.ar      1 UNK    0.0000
     26 O26         2.5009   -7.3625    1.9454 O.3       1 UNK    0.0000
     27 C27         0.9073   -2.0893   -0.6835 C.ar      1 UNK    0.0000
     28 C28         0.8335   -0.7139   -0.7705 C.ar      1 UNK    0.0000
@<TRIPOS>BOND
     1    1    2 2
     2    2    3 2
     3    2    4 1
     4    4    9 ar
     5    4    5 ar
     6    5    6 ar
     7    6    7 ar
     8    7    8 ar
     9    8    9 ar
    10    9   10 1
    11   10   28 ar
    12   10   11 ar
    13   11   12 ar
    14   12   13 ar
    15   13   14 1
    16   13   27 ar
    17   14   15 1
    18   15   16 1
    19   16   26 1
    20   16   17 2
    21   17   18 1
    22   18   19 2
    23   19   20 1
    24   19   26 1
    25   20   25 ar
    26   20   21 ar
    27   21   22 ar
    28   22   23 ar
    29   23   24 ar
    30   24   25 ar
    31   27   28 ar
@<TRIPOS>SUBSTRUCTURE
     1 UNK     1 RESIDUE           4 A     UNK     0 ROOT

#	Name: CHEMBL3680739
#	Creating user name:	j2ho
#	Creation time:	10. 04. 2025 18:06
#	Modifying user name:	j2ho
#	Modification time:	10. 04. 2025 18:06
#	Program:	corina 5.0.0 0026  29.08.2023
@<TRIPOS>MOLECULE
CHEMBL3680739
35 39 1 0 0
SMALL
NO_CHARGES


@<TRIPOS>ATOM
      1 C1         14.7856    4.7757   -6.0771 C.3       1 UNK    0.0000
      2 N2         14.7338    6.2303   -6.2755 N.3       1 UNK    0.0000
      3 C3         13.9879    6.5696   -7.4979 C.3       1 UNK    0.0000
      4 C4         12.6325    5.8638   -7.4508 C.3       1 UNK    0.0000
      5 C5         11.9575    6.1330   -6.1301 C.ar      1 UNK    0.0000
      6 C6         10.5962    5.8870   -6.0221 C.ar      1 UNK    0.0000
      7 C7          9.9384    6.1084   -4.8306 C.ar      1 UNK    0.0000
      8 C8         10.6416    6.5915   -3.7343 C.ar      1 UNK    0.0000
      9 N9          9.9820    6.8220   -2.5229 N.am      1 UNK    0.0000
     10 C10         8.6996    7.2368   -2.5221 C.2       1 UNK    0.0000
     11 O11         8.1462    7.5029   -3.5713 O.2       1 UNK    0.0000
     12 C12         7.9662    7.3682   -1.2455 C.ar      1 UNK    0.0000
     13 C13         8.5986    7.0630   -0.0389 C.ar      1 UNK    0.0000
     14 C14         7.9083    7.1874    1.1487 C.ar      1 UNK    0.0000
     15 C15         6.5935    7.6190    1.1465 C.ar      1 UNK    0.0000
     16 C16         5.9591    7.9176   -0.0461 C.ar      1 UNK    0.0000
     17 C17         4.5251    8.3810   -0.0394 C.3       1 UNK    0.0000
     18 N18         3.6366    7.2211   -0.1464 N.am      1 UNK    0.0000
     19 C19         2.3002    7.3950   -0.1600 C.2       1 UNK    0.0000
     20 O20         1.8317    8.5150   -0.0834 O.2       1 UNK    0.0000
     21 C21         1.4083    6.2306   -0.2675 C.2       1 UNK    0.0000
     22 C22         0.0510    6.2784   -0.2916 C.2       1 UNK    0.0000
     23 C23        -0.4239    4.9481   -0.4032 C.ar      1 UNK    0.0000
     24 C24        -1.7036    4.3897   -0.4718 C.ar      1 UNK    0.0000
     25 C25        -1.8426    3.0115   -0.5852 C.ar      1 UNK    0.0000
     26 C26        -3.1485    2.4289   -0.6616 C.1       1 UNK    0.0000
     27 N27        -4.1844    1.9666   -0.7222 N.1       1 UNK    0.0000
     28 C28        -0.7059    2.1894   -0.6194 C.ar      1 UNK    0.0000
     29 C29         0.5437    2.7288   -0.5529 C.ar      1 UNK    0.0000
     30 C30         0.7088    4.1091   -0.4442 C.ar      1 UNK    0.0000
     31 N31         1.8176    4.9143   -0.3599 N.pl3     1 UNK    0.0000
     32 C33         6.6381    7.7975   -1.2412 C.ar      1 UNK    0.0000
     33 C34        12.0015    6.8389   -3.8448 C.ar      1 UNK    0.0000
     34 C35        12.6594    6.6100   -5.0431 C.ar      1 UNK    0.0000
     35 C36        14.1363    6.8981   -5.1149 C.3       1 UNK    0.0000
@<TRIPOS>BOND
     1    1    2 1
     2    2   35 1
     3    2    3 1
     4    3    4 1
     5    4    5 1
     6    5   34 ar
     7    5    6 ar
     8    6    7 ar
     9    7    8 ar
    10    8    9 1
    11    8   33 ar
    12    9   10 am
    13   10   11 2
    14   10   12 1
    15   12   32 ar
    16   12   13 ar
    17   13   14 ar
    18   14   15 ar
    19   15   16 ar
    20   16   17 1
    21   16   32 ar
    22   17   18 1
    23   18   19 am
    24   19   20 2
    25   19   21 1
    26   21   31 1
    27   21   22 2
    28   22   23 1
    29   23   30 ar
    30   23   24 ar
    31   24   25 ar
    32   25   26 1
    33   25   28 ar
    34   26   27 3
    35   28   29 ar
    36   29   30 ar
    37   30   31 1
    38   33   34 ar
    39   34   35 1
@<TRIPOS>SUBSTRUCTURE
     1 UNK     1 RESIDUE           4 A     UNK     0 ROOT

#	Name: CHEMBL1550429
#	Creating user name:	j2ho
#	Creation time:	10. 04. 2025 18:08
#	Modifying user name:	j2ho
#	Modification time:	10. 04. 2025 18:08
#	Program:	corina 5.0.0 0026  29.08.2023
@<TRIPOS>MOLECULE
CHEMBL1550429
33 35 1 0 0
SMALL
NO_CHARGES


@<TRIPOS>ATOM
      1 C1         -0.1038    1.2688    0.0066 C.3       1 UNK    0.0000
      2 O2         -0.7509    1.6168    1.2322 O.3       1 UNK    0.0000
      3 C3         -2.0181    1.1575    1.4134 C.ar      1 UNK    0.0000
      4 C4         -2.6225    0.3971    0.4335 C.ar      1 UNK    0.0000
      5 C5         -3.9273   -0.0794    0.6266 C.ar      1 UNK    0.0000
      6 C6         -4.5731   -0.8920   -0.4063 C.2       1 UNK    0.0000
      7 C7         -5.9432   -0.8613   -0.5506 C.2       1 UNK    0.0000
      8 C8         -6.7218    0.0747    0.2033 C.1       1 UNK    0.0000
      9 N9         -7.3394    0.8172    0.8014 N.1       1 UNK    0.0000
     10 C10        -6.6059   -1.7900   -1.4790 C.2       1 UNK    0.0000
     11 O11        -5.9445   -2.5852   -2.1195 O.2       1 UNK    0.0000
     12 N12        -7.9459   -1.7600   -1.6201 N.am      1 UNK    0.0000
     13 C13        -8.5864   -2.7120   -2.4202 C.ar      1 UNK    0.0000
     14 C14        -9.8361   -3.1994   -2.0550 C.ar      1 UNK    0.0000
     15 C15       -10.4754   -4.1365   -2.8446 C.ar      1 UNK    0.0000
     16 C16        -9.8730   -4.6027   -3.9954 C.ar      1 UNK    0.0000
     17 C17        -8.6156   -4.1236   -4.3684 C.ar      1 UNK    0.0000
     18 C18        -7.9685   -4.6205   -5.6001 C.2       1 UNK    0.0000
     19 O19        -6.8748   -4.2020   -5.9228 O.2       1 UNK    0.0000
     20 O20        -8.5913   -5.5377   -6.3653 O.3       1 UNK    0.0000
     21 C21        -7.9725   -3.1735   -3.5740 C.ar      1 UNK    0.0000
     22 C22        -4.6134    0.2298    1.8098 C.ar      1 UNK    0.0000
     23 C23        -4.0032    0.9938    2.7784 C.ar      1 UNK    0.0000
     24 C24        -2.7082    1.4604    2.5877 C.ar      1 UNK    0.0000
     25 O25        -2.1123    2.2132    3.5475 O.3       1 UNK    0.0000
     26 C26        -2.8750    2.4859    4.7248 C.3       1 UNK    0.0000
     27 C27        -2.0567    3.3278    5.6696 C.ar      1 UNK    0.0000
     28 C28        -1.2533    2.7208    6.6168 C.ar      1 UNK    0.0000
     29 C29        -0.4983    3.4923    7.4799 C.ar      1 UNK    0.0000
     30 C30        -0.5553    4.8726    7.4032 C.ar      1 UNK    0.0000
     31 Cl31        0.3869    5.8424    8.4919 Cl        1 UNK    0.0000
     32 C32        -1.3638    5.4796    6.4587 C.ar      1 UNK    0.0000
     33 C33        -2.1140    4.7069    5.5924 C.ar      1 UNK    0.0000
@<TRIPOS>BOND
     1    1    2 1
     2    2    3 1
     3    3   24 ar
     4    3    4 ar
     5    4    5 ar
     6    5    6 1
     7    5   22 ar
     8    6    7 2
     9    7    8 1
    10    7   10 1
    11    8    9 3
    12   10   11 2
    13   10   12 am
    14   12   13 1
    15   13   21 ar
    16   13   14 ar
    17   14   15 ar
    18   15   16 ar
    19   16   17 ar
    20   17   18 1
    21   17   21 ar
    22   18   19 2
    23   18   20 1
    24   22   23 ar
    25   23   24 ar
    26   24   25 1
    27   25   26 1
    28   26   27 1
    29   27   33 ar
    30   27   28 ar
    31   28   29 ar
    32   29   30 ar
    33   30   31 1
    34   30   32 ar
    35   32   33 ar
@<TRIPOS>SUBSTRUCTURE
     1 UNK     1 RESIDUE           4 A     UNK     0 ROOT

#	Name: CHEMBL5094181
#	Creating user name:	j2ho
#	Creation time:	10. 04. 2025 17:55
#	Modifying user name:	j2ho
#	Modification time:	10. 04. 2025 17:55
#	Program:	corina 5.0.0 0026  29.08.2023
@<TRIPOS>MOLECULE
CHEMBL5094181
32 36 1 0 0
SMALL
NO_CHARGES


@<TRIPOS>ATOM
      1 O1         -1.4700    2.0913    3.8086 O.2       1 UNK    0.0000
      2 C2         -0.4734    1.4066    3.6839 C.2       1 UNK    0.0000
      3 N3         -0.0203    1.0939    2.4537 N.am      1 UNK    0.0000
      4 C4         -0.7288    1.5792    1.2668 C.3       1 UNK    0.0000
      5 C5         -0.0127    1.0858    0.0080 C.3       1 UNK    0.0000
      6 C6         -0.7527    1.5927   -1.2315 C.3       1 UNK    0.0000
      7 N7         -0.0670    1.1202   -2.4368 N.pl3     1 UNK    0.0000
      8 C8         -0.3106   -0.0499   -3.1040 C.2       1 UNK    0.0000
      9 C9          0.5388   -0.0871   -4.1484 C.2       1 UNK    0.0000
     10 N10         1.2809    1.0298   -4.1197 N.2       1 UNK    0.0000
     11 C11         0.9195    1.7605   -3.1005 C.2       1 UNK    0.0000
     12 C12         0.2418    0.9168    4.8818 C.2       1 UNK    0.0000
     13 C13        -0.1220    1.1683    6.2093 C.2       1 UNK    0.0000
     14 C14         0.8033    0.5330    7.0248 C.2       1 UNK    0.0000
     15 N15         0.9226    0.4519    8.3559 N.2       1 UNK    0.0000
     16 C16         1.9105   -0.2271    8.9113 C.2       1 UNK    0.0000
     17 C17         2.0180   -0.3006   10.3875 C.ar      1 UNK    0.0000
     18 C18         3.0553   -1.0207   10.9789 C.ar      1 UNK    0.0000
     19 C19         3.1529   -1.0815   12.3540 C.ar      1 UNK    0.0000
     20 C20         2.2184   -0.4382   13.1456 C.ar      1 UNK    0.0000
     21 C21         1.1837    0.2730   12.5647 C.ar      1 UNK    0.0000
     22 C22         1.0787    0.3454   11.1907 C.ar      1 UNK    0.0000
     23 C23         2.8623   -0.8823    8.1043 C.2       1 UNK    0.0000
     24 C24         2.7498   -0.8059    6.7451 C.2       1 UNK    0.0000
     25 C25         3.7315   -1.4823    5.8722 C.ar      1 UNK    0.0000
     26 C26         3.6679   -1.3189    4.4871 C.ar      1 UNK    0.0000
     27 C27         4.5908   -1.9491    3.6783 C.ar      1 UNK    0.0000
     28 C28         5.5709   -2.7508    4.2361 C.ar      1 UNK    0.0000
     29 C29         5.6364   -2.9213    5.6077 C.ar      1 UNK    0.0000
     30 C30         4.7234   -2.2923    6.4285 C.ar      1 UNK    0.0000
     31 N31         1.7078   -0.0896    6.2009 N.pl3     1 UNK    0.0000
     32 N32         1.3294    0.1627    4.8771 N.2       1 UNK    0.0000
@<TRIPOS>BOND
     1    1    2 2
     2    2    3 am
     3    2   12 1
     4    3    4 1
     5    4    5 1
     6    5    6 1
     7    6    7 1
     8    7   11 1
     9    7    8 1
    10    8    9 2
    11    9   10 1
    12   10   11 2
    13   12   32 2
    14   12   13 1
    15   13   14 2
    16   14   31 1
    17   14   15 1
    18   15   16 2
    19   16   17 1
    20   16   23 1
    21   17   22 ar
    22   17   18 ar
    23   18   19 ar
    24   19   20 ar
    25   20   21 ar
    26   21   22 ar
    27   23   24 2
    28   24   25 1
    29   24   31 1
    30   25   30 ar
    31   25   26 ar
    32   26   27 ar
    33   27   28 ar
    34   28   29 ar
    35   29   30 ar
    36   31   32 1
@<TRIPOS>SUBSTRUCTURE
     1 UNK     1 RESIDUE           4 A     UNK     0 ROOT

#	Name: CHEMBL349556
#	Creating user name:	j2ho
#	Creation time:	10. 04. 2025 18:02
#	Modifying user name:	j2ho
#	Modification time:	10. 04. 2025 18:02
#	Program:	corina 5.0.0 0026  29.08.2023
@<TRIPOS>MOLECULE
CHEMBL349556
35 39 1 0 0
SMALL
NO_CHARGES


@<TRIPOS>ATOM
      1 C1         -4.0308    3.2389   10.4610 C.3       1 UNK    0.0000
      2 O2         -4.4422    4.3486    9.6602 O.3       1 UNK    0.0000
      3 C3         -4.1750    4.2820    8.3308 C.ar      1 UNK    0.0000
      4 C4         -4.5487    5.3281    7.4956 C.ar      1 UNK    0.0000
      5 C5         -4.2794    5.2644    6.1464 C.ar      1 UNK    0.0000
      6 C6         -3.6296    4.1462    5.6176 C.ar      1 UNK    0.0000
      7 C7         -3.3388    4.0738    4.1712 C.2       1 UNK    0.0000
      8 C8         -2.4424    4.9829    3.5751 C.2       1 UNK    0.0000
      9 C9         -1.7868    6.0125    4.3835 C.2       1 UNK    0.0000
     10 O10        -2.0153    6.0866    5.5759 O.2       1 UNK    0.0000
     11 O11        -0.9294    6.8792    3.8059 O.3       1 UNK    0.0000
     12 C12        -2.1817    4.8904    2.1871 C.2       1 UNK    0.0000
     13 O13        -1.4076    5.6715    1.6610 O.2       1 UNK    0.0000
     14 N14        -2.7851    3.9427    1.4458 N.am      1 UNK    0.0000
     15 C15        -2.5022    3.8633    0.0106 C.3       1 UNK    0.0000
     16 C16        -3.4537    4.7595   -0.7394 C.ar      1 UNK    0.0000
     17 C17        -4.6136    4.2383   -1.2798 C.ar      1 UNK    0.0000
     18 C18        -5.4867    5.0598   -1.9683 C.ar      1 UNK    0.0000
     19 C19        -5.2020    6.4048   -2.1175 C.ar      1 UNK    0.0000
     20 C20        -4.0440    6.9308   -1.5788 C.ar      1 UNK    0.0000
     21 C21        -3.1632    6.1072   -0.8923 C.ar      1 UNK    0.0000
     22 O22        -2.0204    6.6211   -0.3663 O.3       1 UNK    0.0000
     23 C23        -1.8269    8.0316   -0.4887 C.3       1 UNK    0.0000
     24 C24        -3.6640    3.0542    2.0088 C.2       1 UNK    0.0000
     25 C25        -3.9528    3.0948    3.3663 C.2       1 UNK    0.0000
     26 O26        -4.8356    2.1117    3.6570 O.3       1 UNK    0.0000
     27 C27        -5.1672    1.4120    2.5521 C.ar      1 UNK    0.0000
     28 C28        -6.0160    0.3346    2.3409 C.ar      1 UNK    0.0000
     29 C29        -6.1518   -0.1982    1.0682 C.ar      1 UNK    0.0000
     30 N30        -7.0051   -1.2796    0.8592 N.pl3     1 UNK    0.0000
     31 C31        -5.4414    0.3399   -0.0051 C.ar      1 UNK    0.0000
     32 C32        -4.6028    1.3995    0.1867 C.ar      1 UNK    0.0000
     33 C33        -4.4553    1.9475    1.4632 C.ar      1 UNK    0.0000
     34 C34        -3.2607    3.0941    6.4598 C.ar      1 UNK    0.0000
     35 C35        -3.5281    3.1682    7.8089 C.ar      1 UNK    0.0000
@<TRIPOS>BOND
     1    1    2 1
     2    2    3 1
     3    3   35 ar
     4    3    4 ar
     5    4    5 ar
     6    5    6 ar
     7    6    7 1
     8    6   34 ar
     9    7   25 1
    10    7    8 2
    11    8    9 1
    12    8   12 1
    13    9   10 2
    14    9   11 1
    15   12   13 2
    16   12   14 am
    17   14   15 1
    18   14   24 1
    19   15   16 1
    20   16   21 ar
    21   16   17 ar
    22   17   18 ar
    23   18   19 ar
    24   19   20 ar
    25   20   21 ar
    26   21   22 1
    27   22   23 1
    28   24   33 1
    29   24   25 2
    30   25   26 1
    31   26   27 1
    32   27   33 ar
    33   27   28 ar
    34   28   29 ar
    35   29   30 1
    36   29   31 ar
    37   31   32 ar
    38   32   33 ar
    39   34   35 ar
@<TRIPOS>SUBSTRUCTURE
     1 UNK     1 RESIDUE           4 A     UNK     0 ROOT

#	Name: CHEMBL1411912
#	Creating user name:	j2ho
#	Creation time:	10. 04. 2025 18:10
#	Modifying user name:	j2ho
#	Modification time:	10. 04. 2025 18:10
#	Program:	corina 5.0.0 0026  29.08.2023
@<TRIPOS>MOLECULE
CHEMBL1411912
35 39 1 0 0
SMALL
NO_CHARGES


@<TRIPOS>ATOM
      1 O1          0.0023   -0.0038   -0.0083 O.2       1 UNK    0.0000
      2 C2         -0.0143    1.2116    0.0068 C.2       1 UNK    0.0000
      3 N3         -1.1906    1.8694    0.0179 N.am      1 UNK    0.0000
      4 C4         -2.3904    1.1584   -0.0859 C.ar      1 UNK    0.0000
      5 C5         -3.4677    1.7071   -0.7694 C.ar      1 UNK    0.0000
      6 C6         -4.6494    1.0001   -0.8745 C.ar      1 UNK    0.0000
      7 C7         -4.7643   -0.2483   -0.2908 C.ar      1 UNK    0.0000
      8 S8         -6.2759   -1.1442   -0.4216 S.o2      1 UNK    0.0000
      9 O9         -6.9409   -0.6432   -1.5731 O.2       1 UNK    0.0000
     10 O10        -5.9457   -2.5156   -0.2498 O.2       1 UNK    0.0000
     11 N11        -7.2101   -0.7217    0.8788 N.am      1 UNK    0.0000
     12 C12        -7.1396   -1.4773    2.1396 C.3       1 UNK    0.0000
     13 C13        -8.5601   -1.8487    2.5657 C.3       1 UNK    0.0000
     14 O14        -9.3735   -0.6731    2.5741 O.3       1 UNK    0.0000
     15 C15        -9.5154   -0.0504    1.2951 C.3       1 UNK    0.0000
     16 C16        -8.1398    0.4166    0.8057 C.3       1 UNK    0.0000
     17 C17        -3.6952   -0.7953    0.3949 C.ar      1 UNK    0.0000
     18 C18        -2.5090   -0.0957    0.4992 C.ar      1 UNK    0.0000
     19 C19         1.2555    1.9681    0.0069 C.ar      1 UNK    0.0000
     20 C20         1.2400    3.3639    0.0183 C.ar      1 UNK    0.0000
     21 C21         2.4288    4.0638    0.0236 C.ar      1 UNK    0.0000
     22 C22         3.6346    3.3855    0.0065 C.ar      1 UNK    0.0000
     23 C23         4.9292    4.1568    0.0060 C.3       1 UNK    0.0000
     24 N24         5.3392    4.4244   -1.3790 N.3       1 UNK    0.0000
     25 C25         6.6994    4.9840   -1.4276 C.3       1 UNK    0.0000
     26 C26         7.2085    4.8976   -2.8667 C.3       1 UNK    0.0000
     27 C27         6.1861    5.4785   -3.8095 C.ar      1 UNK    0.0000
     28 C28         6.5873    5.8172   -5.0930 C.ar      1 UNK    0.0000
     29 C29         5.6818    6.3479   -5.9895 C.ar      1 UNK    0.0000
     30 C30         4.3679    6.5429   -5.6058 C.ar      1 UNK    0.0000
     31 C31         3.9680    6.2076   -4.3281 C.ar      1 UNK    0.0000
     32 C32         4.8771    5.6753   -3.4254 C.ar      1 UNK    0.0000
     33 C33         4.3941    5.3289   -2.0414 C.3       1 UNK    0.0000
     34 C34         3.6570    2.0022   -0.0107 C.ar      1 UNK    0.0000
     35 C35         2.4755    1.2900   -0.0104 C.ar      1 UNK    0.0000
@<TRIPOS>BOND
     1    1    2 2
     2    2    3 am
     3    2   19 1
     4    3    4 1
     5    4   18 ar
     6    4    5 ar
     7    5    6 ar
     8    6    7 ar
     9    7    8 1
    10    7   17 ar
    11    8    9 2
    12    8   10 2
    13    8   11 am
    14   11   16 1
    15   11   12 1
    16   12   13 1
    17   13   14 1
    18   14   15 1
    19   15   16 1
    20   17   18 ar
    21   19   35 ar
    22   19   20 ar
    23   20   21 ar
    24   21   22 ar
    25   22   23 1
    26   22   34 ar
    27   23   24 1
    28   24   33 1
    29   24   25 1
    30   25   26 1
    31   26   27 1
    32   27   32 ar
    33   27   28 ar
    34   28   29 ar
    35   29   30 ar
    36   30   31 ar
    37   31   32 ar
    38   32   33 1
    39   34   35 ar
@<TRIPOS>SUBSTRUCTURE
     1 UNK     1 RESIDUE           4 A     UNK     0 ROOT

#	Name: CHEMBL1080668
#	Creating user name:	j2ho
#	Creation time:	10. 04. 2025 18:00
#	Modifying user name:	j2ho
#	Modification time:	10. 04. 2025 18:00
#	Program:	corina 5.0.0 0026  29.08.2023
@<TRIPOS>MOLECULE
CHEMBL1080668
35 39 1 0 0
SMALL
NO_CHARGES


@<TRIPOS>ATOM
      1 N1          7.5085    4.2391    5.7438 N.1       1 UNK    0.0000
      2 C2          7.1920    3.8614    4.7203 C.1       1 UNK    0.0000
      3 C3          6.7930    3.3853    3.4300 C.ar      1 UNK    0.0000
      4 C4          7.3772    2.2344    2.8962 C.ar      1 UNK    0.0000
      5 C5          6.9869    1.7750    1.6552 C.ar      1 UNK    0.0000
      6 C6          6.0261    2.4564    0.9313 C.ar      1 UNK    0.0000
      7 C7          5.4425    3.6053    1.4510 C.ar      1 UNK    0.0000
      8 N8          4.4703    4.2912    0.7139 N.am      1 UNK    0.0000
      9 C9          4.3767    5.6326    0.8059 C.2       1 UNK    0.0000
     10 O10         5.1945    6.2560    1.4549 O.2       1 UNK    0.0000
     11 N11         3.3768    6.2829    0.1786 N.am      1 UNK    0.0000
     12 C12         3.3414    7.6820    0.1820 C.ar      1 UNK    0.0000
     13 C13         2.1208    8.3464    0.1891 C.ar      1 UNK    0.0000
     14 C14         2.0818    9.7277    0.1988 C.ar      1 UNK    0.0000
     15 C15         3.2550   10.4556    0.1892 C.ar      1 UNK    0.0000
     16 C16         4.4837    9.7977    0.1763 C.ar      1 UNK    0.0000
     17 C17         5.7452   10.5783    0.1659 C.2       1 UNK    0.0000
     18 C18         5.6909   11.9361    0.1639 C.2       1 UNK    0.0000
     19 N19         6.8501   12.6638    0.1599 N.pl3     1 UNK    0.0000
     20 C20         7.1200   13.9978    0.1603 C.2       1 UNK    0.0000
     21 C21         8.4676   14.1320    0.1476 C.2       1 UNK    0.0000
     22 N22         9.0151   12.9160    0.1396 N.2       1 UNK    0.0000
     23 C23         8.0549   12.0079    0.1468 C.2       1 UNK    0.0000
     24 C24         8.0631   10.5892    0.1435 C.2       1 UNK    0.0000
     25 N25         9.2654    9.9003    0.1308 N.pl3     1 UNK    0.0000
     26 C26         9.2701    8.4353    0.1279 C.3       1 UNK    0.0000
     27 C27        10.6925    7.9376    0.1135 C.ar      1 UNK    0.0000
     28 C28        11.3491    7.7000   -1.0843 C.ar      1 UNK    0.0000
     29 C29        12.6549    7.2478   -1.0583 C.ar      1 UNK    0.0000
     30 N30        13.2718    7.0335    0.0873 N.ar      1 UNK    0.0000
     31 C31        12.6770    7.2442    1.2453 C.ar      1 UNK    0.0000
     32 C32        11.3736    7.7009    1.2977 C.ar      1 UNK    0.0000
     33 N33         6.9237    9.9304    0.1530 N.2       1 UNK    0.0000
     34 C34         4.5239    8.4055    0.1727 C.ar      1 UNK    0.0000
     35 C35         5.8235    4.0726    2.6993 C.ar      1 UNK    0.0000
@<TRIPOS>BOND
     1    1    2 3
     2    2    3 1
     3    3   35 ar
     4    3    4 ar
     5    4    5 ar
     6    5    6 ar
     7    6    7 ar
     8    7    8 1
     9    7   35 ar
    10    8    9 am
    11    9   10 2
    12    9   11 am
    13   11   12 1
    14   12   34 ar
    15   12   13 ar
    16   13   14 ar
    17   14   15 ar
    18   15   16 ar
    19   16   17 1
    20   16   34 ar
    21   17   33 1
    22   17   18 2
    23   18   19 1
    24   19   23 1
    25   19   20 1
    26   20   21 2
    27   21   22 1
    28   22   23 2
    29   23   24 1
    30   24   25 1
    31   24   33 2
    32   25   26 1
    33   26   27 1
    34   27   32 ar
    35   27   28 ar
    36   28   29 ar
    37   29   30 ar
    38   30   31 ar
    39   31   32 ar
@<TRIPOS>SUBSTRUCTURE
     1 UNK     1 RESIDUE           4 A     UNK     0 ROOT

#	Name: CHEMBL1499276
#	Creating user name:	j2ho
#	Creation time:	10. 04. 2025 17:57
#	Modifying user name:	j2ho
#	Modification time:	10. 04. 2025 17:57
#	Program:	corina 5.0.0 0026  29.08.2023
@<TRIPOS>MOLECULE
CHEMBL1499276
30 34 1 0 0
SMALL
NO_CHARGES


@<TRIPOS>ATOM
      1 C1          6.1729   -1.0831   -0.0749 C.3       1 UNK    0.0000
      2 C2          4.8686   -0.3283   -0.0604 C.ar      1 UNK    0.0000
      3 C3          4.8731    1.0551   -0.0631 C.ar      1 UNK    0.0000
      4 C4          3.6818    1.7516   -0.0504 C.ar      1 UNK    0.0000
      5 C5          2.4725    1.0585   -0.0344 C.ar      1 UNK    0.0000
      6 C6          1.1891    1.8012   -0.0201 C.ar      1 UNK    0.0000
      7 C7         -0.0124    1.0767   -0.0041 C.ar      1 UNK    0.0000
      8 C8         -1.2201    1.7602    0.0039 C.ar      1 UNK    0.0000
      9 C9         -2.5114    1.0399    0.0141 C.2       1 UNK    0.0000
     10 O10        -3.5522    1.6595    0.1169 O.2       1 UNK    0.0000
     11 N11        -2.5345   -0.3036   -0.0905 N.am      1 UNK    0.0000
     12 C12        -3.7576   -0.9766   -0.1945 C.ar      1 UNK    0.0000
     13 C13        -3.9131   -2.2288    0.3858 C.ar      1 UNK    0.0000
     14 C14        -5.1210   -2.8913    0.2868 C.ar      1 UNK    0.0000
     15 C15        -6.1783   -2.3142   -0.4012 C.ar      1 UNK    0.0000
     16 C16        -6.0246   -1.0626   -0.9861 C.ar      1 UNK    0.0000
     17 C17        -4.8137   -0.3955   -0.8823 C.ar      1 UNK    0.0000
     18 O18        -7.0523   -0.4779   -1.6605 O.3       1 UNK    0.0000
     19 C19        -8.1282   -1.3329   -2.0619 C.3       1 UNK    0.0000
     20 C20        -8.5085   -2.2193   -0.8682 C.3       1 UNK    0.0000
     21 O21        -7.3587   -2.9870   -0.4961 O.3       1 UNK    0.0000
     22 C22        -1.1641    3.2223    0.0068 C.ar      1 UNK    0.0000
     23 C23        -2.3280    3.9988    0.0210 C.ar      1 UNK    0.0000
     24 C24        -2.2304    5.3587    0.0186 C.ar      1 UNK    0.0000
     25 C25        -0.9860    5.9851    0.0022 C.ar      1 UNK    0.0000
     26 C26         0.1656    5.2600   -0.0123 C.ar      1 UNK    0.0000
     27 C27         0.1048    3.8540   -0.0099 C.ar      1 UNK    0.0000
     28 N28         1.2167    3.1171   -0.0225 N.ar      1 UNK    0.0000
     29 C29         2.4742   -0.3355   -0.0259 C.ar      1 UNK    0.0000
     30 C30         3.6716   -1.0214   -0.0450 C.ar      1 UNK    0.0000
@<TRIPOS>BOND
     1    1    2 1
     2    2   30 ar
     3    2    3 ar
     4    3    4 ar
     5    4    5 ar
     6    5    6 1
     7    5   29 ar
     8    6   28 ar
     9    6    7 ar
    10    7    8 ar
    11    8    9 1
    12    8   22 ar
    13    9   10 2
    14    9   11 am
    15   11   12 1
    16   12   17 ar
    17   12   13 ar
    18   13   14 ar
    19   14   15 ar
    20   15   21 1
    21   15   16 ar
    22   16   17 ar
    23   16   18 1
    24   18   19 1
    25   19   20 1
    26   20   21 1
    27   22   27 ar
    28   22   23 ar
    29   23   24 ar
    30   24   25 ar
    31   25   26 ar
    32   26   27 ar
    33   27   28 ar
    34   29   30 ar
@<TRIPOS>SUBSTRUCTURE
     1 UNK     1 RESIDUE           4 A     UNK     0 ROOT

#	Name: CHEMBL201773
#	Creating user name:	j2ho
#	Creation time:	10. 04. 2025 18:09
#	Modifying user name:	j2ho
#	Modification time:	10. 04. 2025 18:09
#	Program:	corina 5.0.0 0026  29.08.2023
@<TRIPOS>MOLECULE
CHEMBL201773
35 38 1 0 0
SMALL
NO_CHARGES


@<TRIPOS>ATOM
      1 C1        -10.5246   -8.2722   -1.3878 C.3       1 UNK    0.0000
      2 C2         -9.6957   -6.9861   -1.3879 C.3       1 UNK    0.0000
      3 C3         -9.4066   -6.5657    0.0545 C.3       1 UNK    0.0000
      4 N4         -8.6130   -5.3342    0.0544 N.am      1 UNK    0.0000
      5 C5         -7.2674   -5.4145    0.0415 C.2       1 UNK    0.0000
      6 O6         -6.7165   -6.5011    0.0300 O.2       1 UNK    0.0000
      7 C7         -6.5018   -4.2271    0.0410 C.2       1 UNK    0.0000
      8 N8         -5.1461   -3.9712    0.0235 N.pl3     1 UNK    0.0000
      9 C10        -4.9584   -2.6172    0.0349 C.2       1 UNK    0.0000
     10 C11        -3.6511   -1.9285    0.0261 C.ar      1 UNK    0.0000
     11 C12        -2.4687   -2.6712    0.0108 C.ar      1 UNK    0.0000
     12 C13        -1.2514   -2.0252    0.0031 C.ar      1 UNK    0.0000
     13 C14        -1.1997   -0.6371    0.0101 C.ar      1 UNK    0.0000
     14 O15         0.0021   -0.0041    0.0020 O.3       1 UNK    0.0000
     15 C16        -0.0173    1.4248    0.0099 C.3       1 UNK    0.0000
     16 C17         1.3965    1.9464   -0.0008 C.2       1 UNK    0.0000
     17 O18         2.3289    1.1709   -0.0139 O.2       1 UNK    0.0000
     18 N19         1.6248    3.2747    0.0041 N.am      1 UNK    0.0000
     19 C20         2.9992    3.7818   -0.0063 C.3       1 UNK    0.0000
     20 C21         2.9787    5.2886    0.0020 C.ar      1 UNK    0.0000
     21 C22         2.9636    5.9862   -1.1913 C.ar      1 UNK    0.0000
     22 C23         2.9400    7.3683   -1.1837 C.ar      1 UNK    0.0000
     23 C24         2.9421    8.0530    0.0172 C.ar      1 UNK    0.0000
     24 C25         2.9625    7.3555    1.2105 C.ar      1 UNK    0.0000
     25 C26         2.9808    5.9733    1.2029 C.ar      1 UNK    0.0000
     26 C27        -2.3735    0.1052    0.0310 C.ar      1 UNK    0.0000
     27 C28        -3.5948   -0.5333    0.0335 C.ar      1 UNK    0.0000
     28 C29        -6.1897   -2.0018    0.0500 C.2       1 UNK    0.0000
     29 C30        -7.1650   -3.0024    0.0539 C.2       1 UNK    0.0000
     30 N31        -8.5539   -2.9869    0.0669 N.am      1 UNK    0.0000
     31 C32        -9.2722   -1.7102    0.0801 C.3       1 UNK    0.0000
     32 C33        -9.5356   -1.2583   -1.3578 C.3       1 UNK    0.0000
     33 C34       -10.2858    0.0751   -1.3440 C.3       1 UNK    0.0000
     34 C35        -9.2400   -4.1457    0.0668 C.2       1 UNK    0.0000
     35 O36       -10.4556   -4.1158    0.0778 O.2       1 UNK    0.0000
@<TRIPOS>BOND
     1    1    2 1
     2    2    3 1
     3    3    4 1
     4    4   34 am
     5    4    5 am
     6    5    6 2
     7    5    7 1
     8    7   29 2
     9    7    8 1
    10    8    9 1
    11    9   10 1
    12    9   28 2
    13   10   27 ar
    14   10   11 ar
    15   11   12 ar
    16   12   13 ar
    17   13   14 1
    18   13   26 ar
    19   14   15 1
    20   15   16 1
    21   16   17 2
    22   16   18 am
    23   18   19 1
    24   19   20 1
    25   20   25 ar
    26   20   21 ar
    27   21   22 ar
    28   22   23 ar
    29   23   24 ar
    30   24   25 ar
    31   26   27 ar
    32   28   29 1
    33   29   30 1
    34   30   31 1
    35   30   34 am
    36   31   32 1
    37   32   33 1
    38   34   35 2
@<TRIPOS>SUBSTRUCTURE
     1 UNK     1 RESIDUE           4 A     UNK     0 ROOT

#	Name: CHEMBL4846241
#	Creating user name:	j2ho
#	Creation time:	10. 04. 2025 18:07
#	Modifying user name:	j2ho
#	Modification time:	10. 04. 2025 18:07
#	Program:	corina 5.0.0 0026  29.08.2023
@<TRIPOS>MOLECULE
CHEMBL4846241
34 37 1 0 0
SMALL
NO_CHARGES


@<TRIPOS>ATOM
      1 C1          0.9987   -2.1844    2.9373 C.3       1 UNK    0.0000
      2 O2         -0.1430   -2.8309    2.3711 O.3       1 UNK    0.0000
      3 C3         -1.2333   -2.9640    3.1671 C.ar      1 UNK    0.0000
      4 N4         -1.1986   -2.4957    4.4043 N.ar      1 UNK    0.0000
      5 C5         -2.2295   -2.6058    5.2174 C.ar      1 UNK    0.0000
      6 C6         -3.4064   -3.2212    4.7931 C.ar      1 UNK    0.0000
      7 C7         -4.5607   -3.3435    5.7078 C.2       1 UNK    0.0000
      8 C8         -4.9513   -4.5441    6.0808 C.2       1 UNK    0.0000
      9 C9         -6.1154   -4.7672    7.0044 C.3       1 UNK    0.0000
     10 O10        -6.4667   -3.5457    7.6575 O.3       1 UNK    0.0000
     11 C11        -6.6259   -2.4488    6.7496 C.3       1 UNK    0.0000
     12 C12        -5.2521   -2.0921    6.1752 C.3       1 UNK    0.0000
     13 C13        -3.4782   -3.7224    3.4871 C.ar      1 UNK    0.0000
     14 C14        -2.3731   -3.5848    2.6697 C.ar      1 UNK    0.0000
     15 S15        -2.4055   -4.1958    1.0174 S.o2      1 UNK    0.0000
     16 O16        -3.7032   -4.7386    0.8157 O.2       1 UNK    0.0000
     17 O17        -1.2127   -4.9485    0.8444 O.2       1 UNK    0.0000
     18 N18        -2.2836   -2.8882    0.0087 N.am      1 UNK    0.0000
     19 C19        -1.1180   -2.1178    0.0013 C.ar      1 UNK    0.0000
     20 C20         0.1302   -2.7294   -0.0139 C.ar      1 UNK    0.0000
     21 N21         1.2360   -2.0120   -0.0206 N.ar      1 UNK    0.0000
     22 C22         1.2121   -0.6948   -0.0132 C.ar      1 UNK    0.0000
     23 C23         0.0021   -0.0041    0.0020 C.ar      1 UNK    0.0000
     24 C24        -0.0180    1.4798    0.0102 C.ar      1 UNK    0.0000
     25 C25        -1.2326    2.1625    0.0196 C.ar      1 UNK    0.0000
     26 C26        -1.2454    3.5426    0.0331 C.ar      1 UNK    0.0000
     27 C27        -0.0556    4.2479    0.0255 C.ar      1 UNK    0.0000
     28 C28        -0.0760    5.7548    0.0343 C.3       1 UNK    0.0000
     29 N29        -0.0957    6.2523   -1.3477 N.3       1 UNK    0.0000
     30 C30        -0.3538    7.6980   -1.3831 C.3       1 UNK    0.0000
     31 C31         1.1558    5.9239   -2.0433 C.3       1 UNK    0.0000
     32 C32         1.1529    3.5753    0.0103 C.ar      1 UNK    0.0000
     33 C33         1.1775    2.1953    0.0026 C.ar      1 UNK    0.0000
     34 C34        -1.1913   -0.7291    0.0153 C.ar      1 UNK    0.0000
@<TRIPOS>BOND
     1    1    2 1
     2    2    3 1
     3    3   14 ar
     4    3    4 ar
     5    4    5 ar
     6    5    6 ar
     7    6    7 1
     8    6   13 ar
     9    7   12 1
    10    7    8 2
    11    8    9 1
    12    9   10 1
    13   10   11 1
    14   11   12 1
    15   13   14 ar
    16   14   15 1
    17   15   16 2
    18   15   17 2
    19   15   18 am
    20   18   19 1
    21   19   34 ar
    22   19   20 ar
    23   20   21 ar
    24   21   22 ar
    25   22   23 ar
    26   23   24 1
    27   23   34 ar
    28   24   33 ar
    29   24   25 ar
    30   25   26 ar
    31   26   27 ar
    32   27   28 1
    33   27   32 ar
    34   28   29 1
    35   29   30 1
    36   29   31 1
    37   32   33 ar
@<TRIPOS>SUBSTRUCTURE
     1 UNK     1 RESIDUE           4 A     UNK     0 ROOT

#	Name: CHEMBL3651728
#	Creating user name:	j2ho
#	Creation time:	10. 04. 2025 18:03
#	Modifying user name:	j2ho
#	Modification time:	10. 04. 2025 18:03
#	Program:	corina 5.0.0 0026  29.08.2023
@<TRIPOS>MOLECULE
CHEMBL3651728
29 31 1 0 0
SMALL
NO_CHARGES


@<TRIPOS>ATOM
      1 C1         -0.0127    1.0858    0.0080 C.3       1 UNK    0.0000
      2 C2         -0.7288    1.5792    1.2668 C.3       1 UNK    0.0000
      3 C3         -0.7493    3.0861    1.2751 C.ar      1 UNK    0.0000
      4 C4          0.2830    3.7858    1.8738 C.ar      1 UNK    0.0000
      5 C5          0.2720    5.1658    1.8802 C.ar      1 UNK    0.0000
      6 C6         -0.7875    5.8544    1.2915 C.ar      1 UNK    0.0000
      7 C7         -0.8078    7.3367    1.3001 C.ar      1 UNK    0.0000
      8 C8         -1.0374    8.0509    0.1225 C.ar      1 UNK    0.0000
      9 C9         -1.0472    9.4342    0.1825 C.ar      1 UNK    0.0000
     10 C10        -0.8315   10.0652    1.3954 C.ar      1 UNK    0.0000
     11 C11        -0.8430   11.5708    1.4590 C.3       1 UNK    0.0000
     12 N12        -2.1810   12.0341    1.8503 N.3       1 UNK    0.0000
     13 C13        -2.2299   13.5005    1.9227 C.3       1 UNK    0.0000
     14 C14        -3.6358   13.9443    2.3322 C.3       1 UNK    0.0000
     15 C15        -3.6868   15.4715    2.4076 C.3       1 UNK    0.0000
     16 P16        -5.3618   16.0002    2.8955 P.3       1 UNK    0.0000
     17 O17        -6.3534   15.4221    1.9612 O.2       1 UNK    0.0000
     18 O18        -5.6717   15.4894    4.3905 O.3       1 UNK    0.0000
     19 O19        -5.4527   17.6070    2.8477 O.3       1 UNK    0.0000
     20 N20        -0.6167    9.3728    2.4953 N.ar      1 UNK    0.0000
     21 C21        -0.6025    8.0469    2.4933 C.ar      1 UNK    0.0000
     22 C22        -0.3626    7.3107    3.7569 C.ar      1 UNK    0.0000
     23 C23        -1.0091    6.0984    3.9942 C.ar      1 UNK    0.0000
     24 C24        -0.7784    5.4153    5.1708 C.ar      1 UNK    0.0000
     25 C25         0.0847    5.9360    6.1183 C.ar      1 UNK    0.0000
     26 C26         0.7253    7.1408    5.8905 C.ar      1 UNK    0.0000
     27 C27         0.5062    7.8306    4.7156 C.ar      1 UNK    0.0000
     28 C28        -1.8276    5.1438    0.6943 C.ar      1 UNK    0.0000
     29 C29        -1.8030    3.7640    0.6890 C.ar      1 UNK    0.0000
@<TRIPOS>BOND
     1    1    2 1
     2    2    3 1
     3    3   29 ar
     4    3    4 ar
     5    4    5 ar
     6    5    6 ar
     7    6    7 1
     8    6   28 ar
     9    7   21 ar
    10    7    8 ar
    11    8    9 ar
    12    9   10 ar
    13   10   11 1
    14   10   20 ar
    15   11   12 1
    16   12   13 1
    17   13   14 1
    18   14   15 1
    19   15   16 1
    20   16   17 2
    21   16   18 1
    22   16   19 1
    23   20   21 ar
    24   21   22 1
    25   22   27 ar
    26   22   23 ar
    27   23   24 ar
    28   24   25 ar
    29   25   26 ar
    30   26   27 ar
    31   28   29 ar
@<TRIPOS>SUBSTRUCTURE
     1 UNK     1 RESIDUE           4 A     UNK     0 ROOT

#	Name: CHEMBL11687
#	Creating user name:	j2ho
#	Creation time:	10. 04. 2025 18:11
#	Modifying user name:	j2ho
#	Modification time:	10. 04. 2025 18:11
#	Program:	corina 5.0.0 0026  29.08.2023
@<TRIPOS>MOLECULE
CHEMBL11687
31 34 1 0 0
SMALL
NO_CHARGES


@<TRIPOS>ATOM
      1 O1         10.9604  -10.6905   -1.2560 O.2       1 UNK    0.0000
      2 C2         10.9180  -11.5321   -0.3813 C.2       1 UNK    0.0000
      3 O3         11.9459  -11.6610    0.4798 O.3       1 UNK    0.0000
      4 C4          9.7388  -12.4148   -0.2617 C.ar      1 UNK    0.0000
      5 C5          9.8957  -13.7988   -0.2697 C.ar      1 UNK    0.0000
      6 C6          8.7898  -14.6200   -0.1580 C.ar      1 UNK    0.0000
      7 C7          7.5227  -14.0764   -0.0379 C.ar      1 UNK    0.0000
      8 C8          7.3480  -12.7057   -0.0223 C.ar      1 UNK    0.0000
      9 C9          8.4498  -11.8621   -0.1395 C.ar      1 UNK    0.0000
     10 C10         8.2674  -10.3936   -0.1295 C.2       1 UNK    0.0000
     11 O11         9.2385   -9.6598   -0.1215 O.2       1 UNK    0.0000
     12 C12         6.9213   -9.8244   -0.1293 C.2       1 UNK    0.0000
     13 C13         6.7547   -8.4833   -0.1202 C.2       1 UNK    0.0000
     14 C14         5.4000   -7.9104   -0.1200 C.ar      1 UNK    0.0000
     15 C15         4.2812   -8.7513   -0.1297 C.ar      1 UNK    0.0000
     16 C16         3.0134   -8.2095   -0.1299 C.ar      1 UNK    0.0000
     17 C17         2.8424   -6.8366   -0.1149 C.ar      1 UNK    0.0000
     18 C18         3.9457   -5.9930   -0.1110 C.ar      1 UNK    0.0000
     19 O19         3.7697   -4.6454   -0.1018 O.3       1 UNK    0.0000
     20 C20         2.4232   -4.1669   -0.1028 C.3       1 UNK    0.0000
     21 C21         2.4256   -2.6599   -0.0919 C.ar      1 UNK    0.0000
     22 C22         3.6439   -1.9838   -0.0831 C.ar      1 UNK    0.0000
     23 C23         3.6653   -0.6182   -0.0727 C.ar      1 UNK    0.0000
     24 C24         2.4347    0.0653   -0.0714 C.ar      1 UNK    0.0000
     25 C25         2.3778    1.4684   -0.0615 C.ar      1 UNK    0.0000
     26 C26         1.1679    2.0926   -0.0601 C.ar      1 UNK    0.0000
     27 C27        -0.0159    1.3575   -0.0693 C.ar      1 UNK    0.0000
     28 C28         0.0025   -0.0031   -0.0794 C.ar      1 UNK    0.0000
     29 C29         1.2324   -0.6842   -0.0807 C.ar      1 UNK    0.0000
     30 N30         1.2816   -2.0201   -0.0910 N.ar      1 UNK    0.0000
     31 C31         5.2240   -6.5233   -0.1106 C.ar      1 UNK    0.0000
@<TRIPOS>BOND
     1    1    2 2
     2    2    3 1
     3    2    4 1
     4    4    9 ar
     5    4    5 ar
     6    5    6 ar
     7    6    7 ar
     8    7    8 ar
     9    8    9 ar
    10    9   10 1
    11   10   11 2
    12   10   12 1
    13   12   13 2
    14   13   14 1
    15   14   31 ar
    16   14   15 ar
    17   15   16 ar
    18   16   17 ar
    19   17   18 ar
    20   18   19 1
    21   18   31 ar
    22   19   20 1
    23   20   21 1
    24   21   30 ar
    25   21   22 ar
    26   22   23 ar
    27   23   24 ar
    28   24   29 ar
    29   24   25 ar
    30   25   26 ar
    31   26   27 ar
    32   27   28 ar
    33   28   29 ar
    34   29   30 ar
@<TRIPOS>SUBSTRUCTURE
     1 UNK     1 RESIDUE           4 A     UNK     0 ROOT

#	Name: CHEMBL1923961
#	Creating user name:	j2ho
#	Creation time:	10. 04. 2025 18:13
#	Modifying user name:	j2ho
#	Modification time:	10. 04. 2025 18:13
#	Program:	corina 5.0.0 0026  29.08.2023
@<TRIPOS>MOLECULE
CHEMBL1923961
31 33 1 0 0
SMALL
NO_CHARGES


@<TRIPOS>ATOM
      1 C1         -4.6568   -1.6242    3.9593 C.3       1 UNK    0.0000
      2 C2         -4.0071   -0.3398    3.4405 C.3       1 UNK    0.0000
      3 C3         -4.7328    0.8722    4.0281 C.3       1 UNK    0.0000
      4 C4         -2.5363   -0.3066    3.8606 C.3       1 UNK    0.0000
      5 N6         -2.4471   -0.2302    5.3209 N.am      1 UNK    0.0000
      6 S7         -1.6279   -1.3975    6.1627 S.o2      1 UNK    0.0000
      7 O8         -1.6837   -1.0191    7.5312 O.2       1 UNK    0.0000
      8 O9         -2.1035   -2.6473    5.6818 O.2       1 UNK    0.0000
      9 C10         0.0652   -1.2928    5.6862 C.ar      1 UNK    0.0000
     10 C11         0.5293   -2.0360    4.6169 C.ar      1 UNK    0.0000
     11 C12         1.8560   -1.9499    4.2391 C.ar      1 UNK    0.0000
     12 C13         2.7222   -1.1284    4.9384 C.ar      1 UNK    0.0000
     13 Cl14        4.3905   -1.0257    4.4693 Cl        1 UNK    0.0000
     14 C15         2.2584   -0.3892    6.0119 C.ar      1 UNK    0.0000
     15 C16         0.9302   -0.4717    6.3852 C.ar      1 UNK    0.0000
     16 C17        -1.8673    0.8992    3.2527 C.2       1 UNK    0.0000
     17 O18        -1.3655    1.7397    3.9688 O.2       1 UNK    0.0000
     18 N19        -1.8267    1.0437    1.9134 N.am      1 UNK    0.0000
     19 C20        -1.1764    2.2159    1.3224 C.3       1 UNK    0.0000
     20 C22        -2.1549    3.3608    1.2714 C.2       1 UNK    0.0000
     21 O23        -3.2795    3.2129    1.6859 O.2       1 UNK    0.0000
     22 C24        -0.7102    1.8798   -0.0955 C.3       1 UNK    0.0000
     23 C25         0.3586    0.8192   -0.0348 C.2       1 UNK    0.0000
     24 C26         1.6856    1.0220   -0.0354 C.2       1 UNK    0.0000
     25 N27         2.3408   -0.1779    0.0234 N.pl3     1 UNK    0.0000
     26 C29         1.4281   -1.2080    0.0644 C.ar      1 UNK    0.0000
     27 C30         1.5487   -2.5926    0.1277 C.ar      1 UNK    0.0000
     28 C31         0.4170   -3.3773    0.1557 C.ar      1 UNK    0.0000
     29 C32        -0.8455   -2.8008    0.1213 C.ar      1 UNK    0.0000
     30 C33        -0.9870   -1.4433    0.0590 C.ar      1 UNK    0.0000
     31 C34         0.1467   -0.6288    0.0297 C.ar      1 UNK    0.0000
@<TRIPOS>BOND
     1    1    2 1
     2    2    3 1
     3    2    4 1
     4    4    5 1
     5    4   16 1
     6    5    6 am
     7    6    7 2
     8    6    8 2
     9    6    9 1
    10    9   15 ar
    11    9   10 ar
    12   10   11 ar
    13   11   12 ar
    14   12   13 1
    15   12   14 ar
    16   14   15 ar
    17   16   17 2
    18   16   18 am
    19   18   19 1
    20   19   20 1
    21   19   22 1
    22   20   21 2
    23   22   23 1
    24   23   31 1
    25   23   24 2
    26   24   25 1
    27   25   26 1
    28   26   31 ar
    29   26   27 ar
    30   27   28 ar
    31   28   29 ar
    32   29   30 ar
    33   30   31 ar
@<TRIPOS>SUBSTRUCTURE
     1 UNK     1 RESIDUE           4 A     UNK     0 ROOT

#	Name: CHEMBL1415156
#	Creating user name:	j2ho
#	Creation time:	10. 04. 2025 18:06
#	Modifying user name:	j2ho
#	Modification time:	10. 04. 2025 18:06
#	Program:	corina 5.0.0 0026  29.08.2023
@<TRIPOS>MOLECULE
CHEMBL1415156
30 34 1 0 0
SMALL
NO_CHARGES


@<TRIPOS>ATOM
      1 N1          2.9174   -1.4595    0.3817 N.1       1 UNK    0.0000
      2 C2          2.7023   -0.3540    0.2327 C.1       1 UNK    0.0000
      3 C3          2.4311    1.0395    0.0449 C.2       1 UNK    0.0000
      4 C4          1.1840    1.6471    0.0294 C.2       1 UNK    0.0000
      5 N5         -0.0132    0.9873    0.1958 N.am      1 UNK    0.0000
      6 C6         -0.8411    1.3363    1.2005 C.2       1 UNK    0.0000
      7 O7         -0.5781    2.2971    1.8997 O.2       1 UNK    0.0000
      8 C8         -2.0571    0.5594    1.4507 C.2       1 UNK    0.0000
      9 C9         -2.9781    0.8028    2.4307 C.2       1 UNK    0.0000
     10 C10        -3.9713   -0.1792    2.3042 C.2       1 UNK    0.0000
     11 C11        -3.6187   -0.9710    1.2647 C.2       1 UNK    0.0000
     12 Br12       -4.5942   -2.4645    0.6374 Br        1 UNK    0.0000
     13 O13        -2.4675   -0.5189    0.7503 O.3       1 UNK    0.0000
     14 N14         1.3108    2.9911   -0.1681 N.pl3     1 UNK    0.0000
     15 C15         0.2398    3.8920   -0.2304 C.ar      1 UNK    0.0000
     16 C16        -0.6855    3.8025   -1.2619 C.ar      1 UNK    0.0000
     17 C17        -1.7437    4.6883   -1.3171 C.ar      1 UNK    0.0000
     18 C18        -1.8754    5.6713   -0.3536 C.ar      1 UNK    0.0000
     19 C19        -0.9524    5.7667    0.6717 C.ar      1 UNK    0.0000
     20 C20         0.1046    4.8800    0.7359 C.ar      1 UNK    0.0000
     21 C21         2.6404    3.3409   -0.2988 C.ar      1 UNK    0.0000
     22 N22         3.2631    4.4831   -0.4981 N.ar      1 UNK    0.0000
     23 C23         4.5988    4.5085   -0.5822 C.ar      1 UNK    0.0000
     24 C24         5.2731    5.7257   -0.7935 C.ar      1 UNK    0.0000
     25 C25         6.6305    5.7419   -0.8787 C.ar      1 UNK    0.0000
     26 C26         7.3708    4.5667   -0.7589 C.ar      1 UNK    0.0000
     27 C27         6.7555    3.3713   -0.5534 C.ar      1 UNK    0.0000
     28 C28         5.3519    3.3136   -0.4600 C.ar      1 UNK    0.0000
     29 N29         4.7360    2.1433   -0.2576 N.ar      1 UNK    0.0000
     30 C30         3.4207    2.1071   -0.1724 C.ar      1 UNK    0.0000
@<TRIPOS>BOND
     1    1    2 3
     2    2    3 1
     3    3   30 1
     4    3    4 2
     5    4    5 1
     6    4   14 1
     7    5    6 am
     8    6    7 2
     9    6    8 1
    10    8   13 1
    11    8    9 2
    12    9   10 1
    13   10   11 2
    14   11   12 1
    15   11   13 1
    16   14   15 1
    17   14   21 1
    18   15   20 ar
    19   15   16 ar
    20   16   17 ar
    21   17   18 ar
    22   18   19 ar
    23   19   20 ar
    24   21   30 ar
    25   21   22 ar
    26   22   23 ar
    27   23   28 ar
    28   23   24 ar
    29   24   25 ar
    30   25   26 ar
    31   26   27 ar
    32   27   28 ar
    33   28   29 ar
    34   29   30 ar
@<TRIPOS>SUBSTRUCTURE
     1 UNK     1 RESIDUE           4 A     UNK     0 ROOT

#	Name: CHEMBL1966143
#	Creating user name:	j2ho
#	Creation time:	10. 04. 2025 18:04
#	Modifying user name:	j2ho
#	Modification time:	10. 04. 2025 18:04
#	Program:	corina 5.0.0 0026  29.08.2023
@<TRIPOS>MOLECULE
CHEMBL1966143
32 36 1 0 0
SMALL
NO_CHARGES


@<TRIPOS>ATOM
      1 C1         -4.8264    0.9026   -2.4205 C.3       1 UNK    0.0000
      2 C2         -4.9802    0.4748   -0.9837 C.2       1 UNK    0.0000
      3 N3         -5.9364   -0.2590   -0.4999 N.2       1 UNK    0.0000
      4 N4         -5.7737   -0.4647    0.8699 N.am      1 UNK    0.0000
      5 C5         -6.6362   -1.2103    1.6747 C.ar      1 UNK    0.0000
      6 C6         -6.3695   -1.3518    3.0330 C.ar      1 UNK    0.0000
      7 C7         -7.2211   -2.0819    3.8309 C.ar      1 UNK    0.0000
      8 C8         -8.3489   -2.6911    3.2727 C.ar      1 UNK    0.0000
      9 C9         -9.2606   -3.4787    4.1232 C.2       1 UNK    0.0000
     10 O10       -10.2405   -4.0072    3.6367 O.2       1 UNK    0.0000
     11 O11        -9.0068   -3.6122    5.4399 O.3       1 UNK    0.0000
     12 C12        -8.6106   -2.5515    1.9065 C.ar      1 UNK    0.0000
     13 C13        -7.7577   -1.8153    1.1157 C.ar      1 UNK    0.0000
     14 C14        -4.6581    0.1575    1.3019 C.2       1 UNK    0.0000
     15 O15        -4.2223    0.1749    2.4408 O.2       1 UNK    0.0000
     16 C16        -4.0762    0.8124    0.1237 C.2       1 UNK    0.0000
     17 C17        -2.9179    1.5803    0.0673 C.2       1 UNK    0.0000
     18 C18        -2.1641    1.8059    1.2370 C.2       1 UNK    0.0000
     19 C19        -0.7181    1.5718    1.2479 C.2       1 UNK    0.0000
     20 C20        -0.0127    1.0858    0.0080 C.3       1 UNK    0.0000
     21 C21        -0.0240    1.8040    2.3867 C.2       1 UNK    0.0000
     22 C22        -0.6926    2.2609    3.5479 C.2       1 UNK    0.0000
     23 N23        -0.2203    2.5485    4.7513 N.2       1 UNK    0.0000
     24 C24        -1.2303    2.9529    5.5556 C.ar      1 UNK    0.0000
     25 C25        -1.2864    3.3661    6.8920 C.ar      1 UNK    0.0000
     26 C26        -2.4834    3.7246    7.4438 C.ar      1 UNK    0.0000
     27 C27        -3.6497    3.6842    6.6930 C.ar      1 UNK    0.0000
     28 C28        -3.6185    3.2807    5.3739 C.ar      1 UNK    0.0000
     29 C29        -2.4126    2.9129    4.7961 C.ar      1 UNK    0.0000
     30 N30        -2.0497    2.4734    3.5321 N.pl3     1 UNK    0.0000
     31 C31        -2.7855    2.2521    2.4089 C.2       1 UNK    0.0000
     32 O32        -4.1153    2.4693    2.4234 O.3       1 UNK    0.0000
@<TRIPOS>BOND
     1    1    2 1
     2    2   16 1
     3    2    3 2
     4    3    4 1
     5    4    5 1
     6    4   14 am
     7    5   13 ar
     8    5    6 ar
     9    6    7 ar
    10    7    8 ar
    11    8    9 1
    12    8   12 ar
    13    9   10 2
    14    9   11 1
    15   12   13 ar
    16   14   15 2
    17   14   16 1
    18   16   17 2
    19   17   18 1
    20   18   31 2
    21   18   19 1
    22   19   20 1
    23   19   21 2
    24   21   22 1
    25   22   30 1
    26   22   23 2
    27   23   24 1
    28   24   29 ar
    29   24   25 ar
    30   25   26 ar
    31   26   27 ar
    32   27   28 ar
    33   28   29 ar
    34   29   30 1
    35   30   31 1
    36   31   32 1
@<TRIPOS>SUBSTRUCTURE
     1 UNK     1 RESIDUE           4 A     UNK     0 ROOT

#	Name: CHEMBL518324
#	Creating user name:	j2ho
#	Creation time:	10. 04. 2025 18:04
#	Modifying user name:	j2ho
#	Modification time:	10. 04. 2025 18:04
#	Program:	corina 5.0.0 0026  29.08.2023
@<TRIPOS>MOLECULE
CHEMBL518324
30 33 1 0 0
SMALL
NO_CHARGES


@<TRIPOS>ATOM
      1 N1          8.1166   -1.7185    2.0140 N.3       1 UNK    0.0000
      2 C2          7.8373   -3.0003    1.3530 C.3       1 UNK    0.0000
      3 C4          7.3783   -2.7439   -0.0838 C.3       1 UNK    0.0000
      4 C5          6.0628   -2.0090   -0.0673 C.ar      1 UNK    0.0000
      5 C6          6.0463   -0.6258   -0.0597 C.ar      1 UNK    0.0000
      6 C7          4.8445    0.0525   -0.0446 C.ar      1 UNK    0.0000
      7 C8          3.6459   -0.6588   -0.0369 C.ar      1 UNK    0.0000
      8 C9          2.3512    0.0645   -0.0201 C.ar      1 UNK    0.0000
      9 C10         1.1544   -0.6488   -0.0125 C.ar      1 UNK    0.0000
     10 N11         0.0021   -0.0041    0.0020 N.ar      1 UNK    0.0000
     11 C12        -0.0159    1.3233    0.0093 C.ar      1 UNK    0.0000
     12 N13        -1.2287    2.0012    0.0188 N.pl3     1 UNK    0.0000
     13 C14        -1.2489    3.4660    0.0268 C.3       1 UNK    0.0000
     14 C15        -2.6766    3.9486    0.0362 C.ar      1 UNK    0.0000
     15 C16        -3.3307    4.1805   -1.1725 C.ar      1 UNK    0.0000
     16 C17        -4.6214    4.6113   -1.1992 C.ar      1 UNK    0.0000
     17 C18        -5.3040    4.8379    0.0082 C.ar      1 UNK    0.0000
     18 C19        -6.6352    5.2883    0.0205 C.ar      1 UNK    0.0000
     19 C20        -7.2643    5.4974    1.2090 C.ar      1 UNK    0.0000
     20 C21        -6.6084    5.2707    2.4177 C.ar      1 UNK    0.0000
     21 C22        -5.3197    4.8341    2.4445 C.ar      1 UNK    0.0000
     22 C23        -4.6371    4.6073    1.2372 C.ar      1 UNK    0.0000
     23 C24        -3.3059    4.1568    1.2248 C.ar      1 UNK    0.0000
     24 C25         1.1811    2.0371    0.0017 C.ar      1 UNK    0.0000
     25 N26         2.3321    1.3947   -0.0128 N.ar      1 UNK    0.0000
     26 C27         3.6687   -2.0524   -0.0393 C.ar      1 UNK    0.0000
     27 C28         4.8763   -2.7201   -0.0593 C.ar      1 UNK    0.0000
     28 C29         9.0880   -3.8409    1.3383 C.2       1 UNK    0.0000
     29 O30        10.1682   -3.3193    1.4832 O.2       1 UNK    0.0000
     30 O31         9.0020   -5.1691    1.1643 O.3       1 UNK    0.0000
@<TRIPOS>BOND
     1    1    2 1
     2    2    3 1
     3    2   28 1
     4    3    4 1
     5    4   27 ar
     6    4    5 ar
     7    5    6 ar
     8    6    7 ar
     9    7    8 1
    10    7   26 ar
    11    8   25 ar
    12    8    9 ar
    13    9   10 ar
    14   10   11 ar
    15   11   12 1
    16   11   24 ar
    17   12   13 1
    18   13   14 1
    19   14   23 ar
    20   14   15 ar
    21   15   16 ar
    22   16   17 ar
    23   17   22 ar
    24   17   18 ar
    25   18   19 ar
    26   19   20 ar
    27   20   21 ar
    28   21   22 ar
    29   22   23 ar
    30   24   25 ar
    31   26   27 ar
    32   28   29 2
    33   28   30 1
@<TRIPOS>SUBSTRUCTURE
     1 UNK     1 RESIDUE           4 A     UNK     0 ROOT

